*SPEF "ieee 1481-1999"
*DESIGN "tiny_user_project"
*DATE "11:11:11 Fri 11 11, 1111"
*VENDOR "OpenRCX"
*PROGRAM "Parallel Extraction"
*VERSION "1.0"
*DESIGN_FLOW "NAME_SCOPE LOCAL" "PIN_CAP NONE"
*DIVIDER /
*DELIMITER :
*BUS_DELIMITER []
*T_UNIT 1 NS
*C_UNIT 1 PF
*R_UNIT 1 OHM
*L_UNIT 1 HENRY

*NAME_MAP
*1 io_in[0]
*2 io_in[10]
*3 io_in[11]
*4 io_in[12]
*5 io_in[13]
*6 io_in[14]
*7 io_in[15]
*8 io_in[16]
*9 io_in[17]
*10 io_in[18]
*11 io_in[19]
*12 io_in[1]
*13 io_in[20]
*14 io_in[21]
*15 io_in[22]
*16 io_in[23]
*17 io_in[24]
*18 io_in[25]
*19 io_in[26]
*20 io_in[27]
*21 io_in[28]
*22 io_in[29]
*23 io_in[2]
*24 io_in[30]
*25 io_in[31]
*26 io_in[32]
*27 io_in[33]
*28 io_in[34]
*29 io_in[35]
*30 io_in[36]
*31 io_in[37]
*32 io_in[3]
*33 io_in[4]
*34 io_in[5]
*35 io_in[6]
*36 io_in[7]
*37 io_in[8]
*38 io_in[9]
*39 net107
*40 net117
*41 net118
*42 net119
*43 net120
*44 net121
*45 net122
*46 net123
*47 net124
*48 net125
*49 net126
*50 net108
*51 net127
*52 net128
*53 net129
*54 net130
*55 net131
*56 net132
*57 net133
*58 net134
*59 net135
*60 net136
*61 net109
*62 net137
*63 net138
*64 net139
*65 net140
*66 net141
*67 net142
*68 net143
*69 net144
*70 net110
*71 net111
*72 net112
*73 net113
*74 net114
*75 net115
*76 net116
*77 net76
*78 net86
*79 net87
*80 net88
*81 net89
*82 net90
*83 net91
*84 io_out[16]
*85 io_out[17]
*86 io_out[18]
*87 io_out[19]
*88 net77
*89 io_out[20]
*90 net92
*91 io_out[22]
*92 io_out[23]
*93 net93
*94 net94
*95 net95
*96 net96
*97 net97
*98 net98
*99 net78
*100 net99
*101 net100
*102 net101
*103 net102
*104 net103
*105 net104
*106 net105
*107 net106
*108 net79
*109 net80
*110 net81
*111 net82
*112 net83
*113 net84
*114 net85
*115 la_data_in[0]
*116 la_data_in[10]
*117 la_data_in[11]
*118 la_data_in[12]
*119 la_data_in[13]
*120 la_data_in[14]
*121 la_data_in[15]
*122 la_data_in[16]
*123 la_data_in[17]
*124 la_data_in[18]
*125 la_data_in[19]
*126 la_data_in[1]
*127 la_data_in[20]
*128 la_data_in[21]
*129 la_data_in[22]
*130 la_data_in[23]
*131 la_data_in[24]
*132 la_data_in[25]
*133 la_data_in[26]
*134 la_data_in[27]
*135 la_data_in[28]
*136 la_data_in[29]
*137 la_data_in[2]
*138 la_data_in[30]
*139 la_data_in[31]
*140 la_data_in[32]
*141 la_data_in[33]
*142 la_data_in[34]
*143 la_data_in[35]
*144 la_data_in[36]
*145 la_data_in[37]
*146 la_data_in[38]
*147 la_data_in[39]
*148 la_data_in[3]
*149 la_data_in[40]
*150 la_data_in[41]
*151 la_data_in[42]
*152 la_data_in[43]
*153 la_data_in[44]
*154 la_data_in[45]
*155 la_data_in[46]
*156 la_data_in[47]
*157 la_data_in[48]
*158 la_data_in[49]
*159 la_data_in[4]
*160 la_data_in[50]
*161 la_data_in[51]
*162 la_data_in[52]
*163 la_data_in[53]
*164 la_data_in[54]
*165 la_data_in[55]
*166 la_data_in[56]
*167 la_data_in[57]
*168 la_data_in[58]
*169 la_data_in[59]
*170 la_data_in[5]
*171 la_data_in[60]
*172 la_data_in[61]
*173 la_data_in[62]
*174 la_data_in[63]
*175 la_data_in[6]
*176 la_data_in[7]
*177 la_data_in[8]
*178 la_data_in[9]
*179 net12
*180 net22
*181 net23
*182 net24
*183 net25
*184 net26
*185 net27
*186 net28
*187 net29
*188 net30
*189 net31
*190 net13
*191 net32
*192 net33
*193 net34
*194 net35
*195 net36
*196 net37
*197 net38
*198 net39
*199 net40
*200 net41
*201 net14
*202 net42
*203 net43
*204 net44
*205 net45
*206 net46
*207 net47
*208 net48
*209 net49
*210 net50
*211 net51
*212 net15
*213 net52
*214 net53
*215 net54
*216 net55
*217 net56
*218 net57
*219 net58
*220 net59
*221 net60
*222 net61
*223 net16
*224 net62
*225 net63
*226 net64
*227 net65
*228 net66
*229 net67
*230 net68
*231 net69
*232 net70
*233 net71
*234 net17
*235 net72
*236 net73
*237 net74
*238 net75
*239 net18
*240 net19
*241 net20
*242 net21
*243 la_oenb[0]
*244 la_oenb[10]
*245 la_oenb[11]
*246 la_oenb[12]
*247 la_oenb[13]
*248 la_oenb[14]
*249 la_oenb[15]
*250 la_oenb[16]
*251 la_oenb[17]
*252 la_oenb[18]
*253 la_oenb[19]
*254 la_oenb[1]
*255 la_oenb[20]
*256 la_oenb[21]
*257 la_oenb[22]
*258 la_oenb[23]
*259 la_oenb[24]
*260 la_oenb[25]
*261 la_oenb[26]
*262 la_oenb[27]
*263 la_oenb[28]
*264 la_oenb[29]
*265 la_oenb[2]
*266 la_oenb[30]
*267 la_oenb[31]
*268 la_oenb[32]
*269 la_oenb[33]
*270 la_oenb[34]
*271 la_oenb[35]
*272 la_oenb[36]
*273 la_oenb[37]
*274 la_oenb[38]
*275 la_oenb[39]
*276 la_oenb[3]
*277 la_oenb[40]
*278 la_oenb[41]
*279 la_oenb[42]
*280 la_oenb[43]
*281 la_oenb[44]
*282 la_oenb[45]
*283 la_oenb[46]
*284 la_oenb[47]
*285 la_oenb[48]
*286 la_oenb[49]
*287 la_oenb[4]
*288 la_oenb[50]
*289 la_oenb[51]
*290 la_oenb[52]
*291 la_oenb[53]
*292 la_oenb[54]
*293 la_oenb[55]
*294 la_oenb[56]
*295 la_oenb[57]
*296 la_oenb[58]
*297 la_oenb[59]
*298 la_oenb[5]
*299 la_oenb[60]
*300 la_oenb[61]
*301 la_oenb[62]
*302 la_oenb[63]
*303 la_oenb[6]
*304 la_oenb[7]
*305 la_oenb[8]
*306 la_oenb[9]
*307 user_clock2
*308 net145
*309 net146
*310 net147
*313 wb_clk_i
*314 wb_rst_i
*315 net148
*316 wbs_adr_i[0]
*317 wbs_adr_i[10]
*318 wbs_adr_i[11]
*319 wbs_adr_i[12]
*320 wbs_adr_i[13]
*321 wbs_adr_i[14]
*322 wbs_adr_i[15]
*323 wbs_adr_i[16]
*324 wbs_adr_i[17]
*325 wbs_adr_i[18]
*326 wbs_adr_i[19]
*327 wbs_adr_i[1]
*328 wbs_adr_i[20]
*329 wbs_adr_i[21]
*330 wbs_adr_i[22]
*331 wbs_adr_i[23]
*332 wbs_adr_i[24]
*333 wbs_adr_i[25]
*334 wbs_adr_i[26]
*335 wbs_adr_i[27]
*336 wbs_adr_i[28]
*337 wbs_adr_i[29]
*338 wbs_adr_i[2]
*339 wbs_adr_i[30]
*340 wbs_adr_i[31]
*341 wbs_adr_i[3]
*342 wbs_adr_i[4]
*343 wbs_adr_i[5]
*344 wbs_adr_i[6]
*345 wbs_adr_i[7]
*346 wbs_adr_i[8]
*347 wbs_adr_i[9]
*348 wbs_cyc_i
*349 wbs_dat_i[0]
*350 wbs_dat_i[10]
*351 wbs_dat_i[11]
*352 wbs_dat_i[12]
*353 wbs_dat_i[13]
*354 wbs_dat_i[14]
*355 wbs_dat_i[15]
*356 wbs_dat_i[16]
*357 wbs_dat_i[17]
*358 wbs_dat_i[18]
*359 wbs_dat_i[19]
*360 wbs_dat_i[1]
*361 wbs_dat_i[20]
*362 wbs_dat_i[21]
*363 wbs_dat_i[22]
*364 wbs_dat_i[23]
*365 wbs_dat_i[24]
*366 wbs_dat_i[25]
*367 wbs_dat_i[26]
*368 wbs_dat_i[27]
*369 wbs_dat_i[28]
*370 wbs_dat_i[29]
*371 wbs_dat_i[2]
*372 wbs_dat_i[30]
*373 wbs_dat_i[31]
*374 wbs_dat_i[3]
*375 wbs_dat_i[4]
*376 wbs_dat_i[5]
*377 wbs_dat_i[6]
*378 wbs_dat_i[7]
*379 wbs_dat_i[8]
*380 wbs_dat_i[9]
*381 net149
*382 net159
*383 net160
*384 net161
*385 net162
*386 net163
*387 net164
*388 net165
*389 net166
*390 net167
*391 net168
*392 net150
*393 net169
*394 net170
*395 net171
*396 net172
*397 net173
*398 net174
*399 net175
*400 net176
*401 net177
*402 net178
*403 net151
*404 net179
*405 net180
*406 net152
*407 net153
*408 net154
*409 net155
*410 net156
*411 net157
*412 net158
*413 wbs_sel_i[0]
*414 wbs_sel_i[1]
*415 wbs_sel_i[2]
*416 wbs_sel_i[3]
*417 wbs_stb_i
*418 wbs_we_i
*419 _000_
*420 _001_
*421 _002_
*422 _003_
*423 _004_
*424 _005_
*425 _006_
*426 _007_
*427 net1
*428 net10
*429 net11
*430 net2
*431 net3
*432 net4
*433 net5
*434 net6
*435 net7
*436 net8
*437 net9
*438 ANTENNA__008__I
*439 ANTENNA__009__A1
*440 ANTENNA__009__A2
*441 ANTENNA__011__A1
*442 ANTENNA__011__A2
*443 ANTENNA__012__A1
*444 ANTENNA__014__I
*445 ANTENNA__015__A1
*446 ANTENNA__015__A2
*447 ANTENNA__015__A3
*448 ANTENNA__018__A1
*449 ANTENNA__018__A2
*450 ANTENNA__018__A3
*451 ANTENNA__018__A4
*452 ANTENNA_input1_I
*453 ANTENNA_input2_I
*454 ANTENNA_input3_I
*455 ANTENNA_input4_I
*456 ANTENNA_output10_I
*457 ANTENNA_output11_I
*458 ANTENNA_output5_I
*459 ANTENNA_output6_I
*460 ANTENNA_output7_I
*461 ANTENNA_output8_I
*462 ANTENNA_output9_I
*463 FILLER_0_101
*464 FILLER_0_1011
*465 FILLER_0_1014
*466 FILLER_0_1017
*467 FILLER_0_1032
*468 FILLER_0_1038
*469 FILLER_0_1044
*470 FILLER_0_107
*471 FILLER_0_11
*472 FILLER_0_115
*473 FILLER_0_119
*474 FILLER_0_135
*475 FILLER_0_139
*476 FILLER_0_142
*477 FILLER_0_174
*478 FILLER_0_177
*479 FILLER_0_2
*480 FILLER_0_209
*481 FILLER_0_212
*482 FILLER_0_228
*483 FILLER_0_233
*484 FILLER_0_237
*485 FILLER_0_239
*486 FILLER_0_244
*487 FILLER_0_247
*488 FILLER_0_251
*489 FILLER_0_257
*490 FILLER_0_263
*491 FILLER_0_27
*492 FILLER_0_279
*493 FILLER_0_282
*494 FILLER_0_287
*495 FILLER_0_299
*496 FILLER_0_317
*497 FILLER_0_323
*498 FILLER_0_329
*499 FILLER_0_345
*500 FILLER_0_349
*501 FILLER_0_352
*502 FILLER_0_368
*503 FILLER_0_37
*504 FILLER_0_372
*505 FILLER_0_377
*506 FILLER_0_387
*507 FILLER_0_395
*508 FILLER_0_411
*509 FILLER_0_419
*510 FILLER_0_422
*511 FILLER_0_426
*512 FILLER_0_431
*513 FILLER_0_447
*514 FILLER_0_449
*515 FILLER_0_454
*516 FILLER_0_457
*517 FILLER_0_462
*518 FILLER_0_466
*519 FILLER_0_468
*520 FILLER_0_473
*521 FILLER_0_485
*522 FILLER_0_489
*523 FILLER_0_492
*524 FILLER_0_508
*525 FILLER_0_516
*526 FILLER_0_521
*527 FILLER_0_527
*528 FILLER_0_53
*529 FILLER_0_543
*530 FILLER_0_551
*531 FILLER_0_559
*532 FILLER_0_562
*533 FILLER_0_59
*534 FILLER_0_594
*535 FILLER_0_597
*536 FILLER_0_6
*537 FILLER_0_602
*538 FILLER_0_608
*539 FILLER_0_612
*540 FILLER_0_617
*541 FILLER_0_625
*542 FILLER_0_629
*543 FILLER_0_632
*544 FILLER_0_65
*545 FILLER_0_664
*546 FILLER_0_667
*547 FILLER_0_672
*548 FILLER_0_676
*549 FILLER_0_678
*550 FILLER_0_683
*551 FILLER_0_69
*552 FILLER_0_695
*553 FILLER_0_699
*554 FILLER_0_702
*555 FILLER_0_718
*556 FILLER_0_72
*557 FILLER_0_726
*558 FILLER_0_731
*559 FILLER_0_737
*560 FILLER_0_749
*561 FILLER_0_761
*562 FILLER_0_769
*563 FILLER_0_77
*564 FILLER_0_772
*565 FILLER_0_777
*566 FILLER_0_793
*567 FILLER_0_801
*568 FILLER_0_807
*569 FILLER_0_827
*570 FILLER_0_835
*571 FILLER_0_839
*572 FILLER_0_842
*573 FILLER_0_874
*574 FILLER_0_877
*575 FILLER_0_885
*576 FILLER_0_893
*577 FILLER_0_909
*578 FILLER_0_912
*579 FILLER_0_93
*580 FILLER_0_944
*581 FILLER_0_947
*582 FILLER_0_952
*583 FILLER_0_960
*584 FILLER_0_964
*585 FILLER_0_966
*586 FILLER_0_971
*587 FILLER_0_979
*588 FILLER_0_982
*589 FILLER_0_987
*590 FILLER_0_995
*591 FILLER_100_101
*592 FILLER_100_1024
*593 FILLER_100_1028
*594 FILLER_100_1031
*595 FILLER_100_1039
*596 FILLER_100_1043
*597 FILLER_100_105
*598 FILLER_100_108
*599 FILLER_100_172
*600 FILLER_100_176
*601 FILLER_100_179
*602 FILLER_100_2
*603 FILLER_100_243
*604 FILLER_100_247
*605 FILLER_100_250
*606 FILLER_100_314
*607 FILLER_100_318
*608 FILLER_100_321
*609 FILLER_100_34
*610 FILLER_100_37
*611 FILLER_100_385
*612 FILLER_100_389
*613 FILLER_100_392
*614 FILLER_100_456
*615 FILLER_100_460
*616 FILLER_100_463
*617 FILLER_100_527
*618 FILLER_100_531
*619 FILLER_100_534
*620 FILLER_100_598
*621 FILLER_100_602
*622 FILLER_100_605
*623 FILLER_100_669
*624 FILLER_100_673
*625 FILLER_100_676
*626 FILLER_100_740
*627 FILLER_100_744
*628 FILLER_100_747
*629 FILLER_100_811
*630 FILLER_100_815
*631 FILLER_100_818
*632 FILLER_100_882
*633 FILLER_100_886
*634 FILLER_100_889
*635 FILLER_100_953
*636 FILLER_100_957
*637 FILLER_100_960
*638 FILLER_101_1028
*639 FILLER_101_1036
*640 FILLER_101_1044
*641 FILLER_101_137
*642 FILLER_101_141
*643 FILLER_101_144
*644 FILLER_101_2
*645 FILLER_101_208
*646 FILLER_101_212
*647 FILLER_101_215
*648 FILLER_101_279
*649 FILLER_101_283
*650 FILLER_101_286
*651 FILLER_101_350
*652 FILLER_101_354
*653 FILLER_101_357
*654 FILLER_101_421
*655 FILLER_101_425
*656 FILLER_101_428
*657 FILLER_101_492
*658 FILLER_101_496
*659 FILLER_101_499
*660 FILLER_101_563
*661 FILLER_101_567
*662 FILLER_101_570
*663 FILLER_101_634
*664 FILLER_101_638
*665 FILLER_101_641
*666 FILLER_101_66
*667 FILLER_101_70
*668 FILLER_101_705
*669 FILLER_101_709
*670 FILLER_101_712
*671 FILLER_101_73
*672 FILLER_101_776
*673 FILLER_101_780
*674 FILLER_101_783
*675 FILLER_101_847
*676 FILLER_101_851
*677 FILLER_101_854
*678 FILLER_101_918
*679 FILLER_101_922
*680 FILLER_101_925
*681 FILLER_101_989
*682 FILLER_101_993
*683 FILLER_101_996
*684 FILLER_102_101
*685 FILLER_102_1024
*686 FILLER_102_1028
*687 FILLER_102_1031
*688 FILLER_102_1039
*689 FILLER_102_1043
*690 FILLER_102_105
*691 FILLER_102_108
*692 FILLER_102_13
*693 FILLER_102_172
*694 FILLER_102_176
*695 FILLER_102_179
*696 FILLER_102_2
*697 FILLER_102_243
*698 FILLER_102_247
*699 FILLER_102_250
*700 FILLER_102_29
*701 FILLER_102_314
*702 FILLER_102_318
*703 FILLER_102_321
*704 FILLER_102_33
*705 FILLER_102_37
*706 FILLER_102_385
*707 FILLER_102_389
*708 FILLER_102_392
*709 FILLER_102_456
*710 FILLER_102_460
*711 FILLER_102_463
*712 FILLER_102_527
*713 FILLER_102_531
*714 FILLER_102_534
*715 FILLER_102_598
*716 FILLER_102_602
*717 FILLER_102_605
*718 FILLER_102_669
*719 FILLER_102_673
*720 FILLER_102_676
*721 FILLER_102_7
*722 FILLER_102_740
*723 FILLER_102_744
*724 FILLER_102_747
*725 FILLER_102_811
*726 FILLER_102_815
*727 FILLER_102_818
*728 FILLER_102_882
*729 FILLER_102_886
*730 FILLER_102_889
*731 FILLER_102_953
*732 FILLER_102_957
*733 FILLER_102_960
*734 FILLER_103_1028
*735 FILLER_103_1036
*736 FILLER_103_1044
*737 FILLER_103_137
*738 FILLER_103_141
*739 FILLER_103_144
*740 FILLER_103_2
*741 FILLER_103_208
*742 FILLER_103_212
*743 FILLER_103_215
*744 FILLER_103_279
*745 FILLER_103_283
*746 FILLER_103_286
*747 FILLER_103_350
*748 FILLER_103_354
*749 FILLER_103_357
*750 FILLER_103_421
*751 FILLER_103_425
*752 FILLER_103_428
*753 FILLER_103_492
*754 FILLER_103_496
*755 FILLER_103_499
*756 FILLER_103_563
*757 FILLER_103_567
*758 FILLER_103_570
*759 FILLER_103_634
*760 FILLER_103_638
*761 FILLER_103_641
*762 FILLER_103_66
*763 FILLER_103_70
*764 FILLER_103_705
*765 FILLER_103_709
*766 FILLER_103_712
*767 FILLER_103_73
*768 FILLER_103_776
*769 FILLER_103_780
*770 FILLER_103_783
*771 FILLER_103_847
*772 FILLER_103_851
*773 FILLER_103_854
*774 FILLER_103_918
*775 FILLER_103_922
*776 FILLER_103_925
*777 FILLER_103_989
*778 FILLER_103_993
*779 FILLER_103_996
*780 FILLER_104_101
*781 FILLER_104_1024
*782 FILLER_104_1028
*783 FILLER_104_1031
*784 FILLER_104_1039
*785 FILLER_104_1043
*786 FILLER_104_105
*787 FILLER_104_108
*788 FILLER_104_172
*789 FILLER_104_176
*790 FILLER_104_179
*791 FILLER_104_2
*792 FILLER_104_23
*793 FILLER_104_243
*794 FILLER_104_247
*795 FILLER_104_250
*796 FILLER_104_31
*797 FILLER_104_314
*798 FILLER_104_318
*799 FILLER_104_321
*800 FILLER_104_37
*801 FILLER_104_385
*802 FILLER_104_389
*803 FILLER_104_392
*804 FILLER_104_456
*805 FILLER_104_460
*806 FILLER_104_463
*807 FILLER_104_527
*808 FILLER_104_531
*809 FILLER_104_534
*810 FILLER_104_598
*811 FILLER_104_602
*812 FILLER_104_605
*813 FILLER_104_669
*814 FILLER_104_673
*815 FILLER_104_676
*816 FILLER_104_7
*817 FILLER_104_740
*818 FILLER_104_744
*819 FILLER_104_747
*820 FILLER_104_811
*821 FILLER_104_815
*822 FILLER_104_818
*823 FILLER_104_882
*824 FILLER_104_886
*825 FILLER_104_889
*826 FILLER_104_953
*827 FILLER_104_957
*828 FILLER_104_960
*829 FILLER_105_1028
*830 FILLER_105_1044
*831 FILLER_105_137
*832 FILLER_105_141
*833 FILLER_105_144
*834 FILLER_105_2
*835 FILLER_105_208
*836 FILLER_105_212
*837 FILLER_105_215
*838 FILLER_105_279
*839 FILLER_105_283
*840 FILLER_105_286
*841 FILLER_105_350
*842 FILLER_105_354
*843 FILLER_105_357
*844 FILLER_105_421
*845 FILLER_105_425
*846 FILLER_105_428
*847 FILLER_105_492
*848 FILLER_105_496
*849 FILLER_105_499
*850 FILLER_105_563
*851 FILLER_105_567
*852 FILLER_105_570
*853 FILLER_105_634
*854 FILLER_105_638
*855 FILLER_105_641
*856 FILLER_105_66
*857 FILLER_105_70
*858 FILLER_105_705
*859 FILLER_105_709
*860 FILLER_105_712
*861 FILLER_105_73
*862 FILLER_105_776
*863 FILLER_105_780
*864 FILLER_105_783
*865 FILLER_105_847
*866 FILLER_105_851
*867 FILLER_105_854
*868 FILLER_105_918
*869 FILLER_105_922
*870 FILLER_105_925
*871 FILLER_105_989
*872 FILLER_105_993
*873 FILLER_105_996
*874 FILLER_106_101
*875 FILLER_106_1024
*876 FILLER_106_1028
*877 FILLER_106_1031
*878 FILLER_106_1039
*879 FILLER_106_1043
*880 FILLER_106_105
*881 FILLER_106_108
*882 FILLER_106_172
*883 FILLER_106_176
*884 FILLER_106_179
*885 FILLER_106_2
*886 FILLER_106_243
*887 FILLER_106_247
*888 FILLER_106_250
*889 FILLER_106_314
*890 FILLER_106_318
*891 FILLER_106_321
*892 FILLER_106_34
*893 FILLER_106_37
*894 FILLER_106_385
*895 FILLER_106_389
*896 FILLER_106_392
*897 FILLER_106_456
*898 FILLER_106_460
*899 FILLER_106_463
*900 FILLER_106_527
*901 FILLER_106_531
*902 FILLER_106_534
*903 FILLER_106_598
*904 FILLER_106_602
*905 FILLER_106_605
*906 FILLER_106_669
*907 FILLER_106_673
*908 FILLER_106_676
*909 FILLER_106_740
*910 FILLER_106_744
*911 FILLER_106_747
*912 FILLER_106_811
*913 FILLER_106_815
*914 FILLER_106_818
*915 FILLER_106_882
*916 FILLER_106_886
*917 FILLER_106_889
*918 FILLER_106_953
*919 FILLER_106_957
*920 FILLER_106_960
*921 FILLER_107_1028
*922 FILLER_107_1044
*923 FILLER_107_137
*924 FILLER_107_141
*925 FILLER_107_144
*926 FILLER_107_2
*927 FILLER_107_208
*928 FILLER_107_212
*929 FILLER_107_215
*930 FILLER_107_279
*931 FILLER_107_283
*932 FILLER_107_286
*933 FILLER_107_350
*934 FILLER_107_354
*935 FILLER_107_357
*936 FILLER_107_421
*937 FILLER_107_425
*938 FILLER_107_428
*939 FILLER_107_492
*940 FILLER_107_496
*941 FILLER_107_499
*942 FILLER_107_563
*943 FILLER_107_567
*944 FILLER_107_570
*945 FILLER_107_634
*946 FILLER_107_638
*947 FILLER_107_641
*948 FILLER_107_66
*949 FILLER_107_70
*950 FILLER_107_705
*951 FILLER_107_709
*952 FILLER_107_712
*953 FILLER_107_73
*954 FILLER_107_776
*955 FILLER_107_780
*956 FILLER_107_783
*957 FILLER_107_847
*958 FILLER_107_851
*959 FILLER_107_854
*960 FILLER_107_918
*961 FILLER_107_922
*962 FILLER_107_925
*963 FILLER_107_989
*964 FILLER_107_993
*965 FILLER_107_996
*966 FILLER_108_101
*967 FILLER_108_1024
*968 FILLER_108_1028
*969 FILLER_108_1031
*970 FILLER_108_1039
*971 FILLER_108_1044
*972 FILLER_108_105
*973 FILLER_108_108
*974 FILLER_108_172
*975 FILLER_108_176
*976 FILLER_108_179
*977 FILLER_108_2
*978 FILLER_108_243
*979 FILLER_108_247
*980 FILLER_108_250
*981 FILLER_108_314
*982 FILLER_108_318
*983 FILLER_108_321
*984 FILLER_108_34
*985 FILLER_108_37
*986 FILLER_108_385
*987 FILLER_108_389
*988 FILLER_108_392
*989 FILLER_108_456
*990 FILLER_108_460
*991 FILLER_108_463
*992 FILLER_108_527
*993 FILLER_108_531
*994 FILLER_108_534
*995 FILLER_108_598
*996 FILLER_108_602
*997 FILLER_108_605
*998 FILLER_108_669
*999 FILLER_108_673
*1000 FILLER_108_676
*1001 FILLER_108_740
*1002 FILLER_108_744
*1003 FILLER_108_747
*1004 FILLER_108_811
*1005 FILLER_108_815
*1006 FILLER_108_818
*1007 FILLER_108_882
*1008 FILLER_108_886
*1009 FILLER_108_889
*1010 FILLER_108_953
*1011 FILLER_108_957
*1012 FILLER_108_960
*1013 FILLER_109_1028
*1014 FILLER_109_1044
*1015 FILLER_109_137
*1016 FILLER_109_141
*1017 FILLER_109_144
*1018 FILLER_109_2
*1019 FILLER_109_208
*1020 FILLER_109_212
*1021 FILLER_109_215
*1022 FILLER_109_279
*1023 FILLER_109_283
*1024 FILLER_109_286
*1025 FILLER_109_350
*1026 FILLER_109_354
*1027 FILLER_109_357
*1028 FILLER_109_421
*1029 FILLER_109_425
*1030 FILLER_109_428
*1031 FILLER_109_492
*1032 FILLER_109_496
*1033 FILLER_109_499
*1034 FILLER_109_563
*1035 FILLER_109_567
*1036 FILLER_109_570
*1037 FILLER_109_634
*1038 FILLER_109_638
*1039 FILLER_109_641
*1040 FILLER_109_66
*1041 FILLER_109_70
*1042 FILLER_109_705
*1043 FILLER_109_709
*1044 FILLER_109_712
*1045 FILLER_109_73
*1046 FILLER_109_776
*1047 FILLER_109_780
*1048 FILLER_109_783
*1049 FILLER_109_847
*1050 FILLER_109_851
*1051 FILLER_109_854
*1052 FILLER_109_918
*1053 FILLER_109_922
*1054 FILLER_109_925
*1055 FILLER_109_989
*1056 FILLER_109_993
*1057 FILLER_109_996
*1058 FILLER_10_101
*1059 FILLER_10_1024
*1060 FILLER_10_1028
*1061 FILLER_10_1031
*1062 FILLER_10_1039
*1063 FILLER_10_1043
*1064 FILLER_10_105
*1065 FILLER_10_108
*1066 FILLER_10_172
*1067 FILLER_10_176
*1068 FILLER_10_179
*1069 FILLER_10_2
*1070 FILLER_10_23
*1071 FILLER_10_243
*1072 FILLER_10_247
*1073 FILLER_10_250
*1074 FILLER_10_31
*1075 FILLER_10_314
*1076 FILLER_10_318
*1077 FILLER_10_321
*1078 FILLER_10_37
*1079 FILLER_10_385
*1080 FILLER_10_389
*1081 FILLER_10_392
*1082 FILLER_10_456
*1083 FILLER_10_460
*1084 FILLER_10_463
*1085 FILLER_10_527
*1086 FILLER_10_531
*1087 FILLER_10_534
*1088 FILLER_10_598
*1089 FILLER_10_602
*1090 FILLER_10_605
*1091 FILLER_10_669
*1092 FILLER_10_673
*1093 FILLER_10_676
*1094 FILLER_10_7
*1095 FILLER_10_740
*1096 FILLER_10_744
*1097 FILLER_10_747
*1098 FILLER_10_811
*1099 FILLER_10_815
*1100 FILLER_10_818
*1101 FILLER_10_882
*1102 FILLER_10_886
*1103 FILLER_10_889
*1104 FILLER_10_953
*1105 FILLER_10_957
*1106 FILLER_10_960
*1107 FILLER_110_101
*1108 FILLER_110_1024
*1109 FILLER_110_1028
*1110 FILLER_110_1031
*1111 FILLER_110_1039
*1112 FILLER_110_1043
*1113 FILLER_110_105
*1114 FILLER_110_108
*1115 FILLER_110_172
*1116 FILLER_110_176
*1117 FILLER_110_179
*1118 FILLER_110_2
*1119 FILLER_110_21
*1120 FILLER_110_243
*1121 FILLER_110_247
*1122 FILLER_110_250
*1123 FILLER_110_29
*1124 FILLER_110_314
*1125 FILLER_110_318
*1126 FILLER_110_321
*1127 FILLER_110_33
*1128 FILLER_110_37
*1129 FILLER_110_385
*1130 FILLER_110_389
*1131 FILLER_110_392
*1132 FILLER_110_456
*1133 FILLER_110_460
*1134 FILLER_110_463
*1135 FILLER_110_5
*1136 FILLER_110_527
*1137 FILLER_110_531
*1138 FILLER_110_534
*1139 FILLER_110_598
*1140 FILLER_110_602
*1141 FILLER_110_605
*1142 FILLER_110_669
*1143 FILLER_110_673
*1144 FILLER_110_676
*1145 FILLER_110_740
*1146 FILLER_110_744
*1147 FILLER_110_747
*1148 FILLER_110_811
*1149 FILLER_110_815
*1150 FILLER_110_818
*1151 FILLER_110_882
*1152 FILLER_110_886
*1153 FILLER_110_889
*1154 FILLER_110_953
*1155 FILLER_110_957
*1156 FILLER_110_960
*1157 FILLER_111_1028
*1158 FILLER_111_1044
*1159 FILLER_111_137
*1160 FILLER_111_141
*1161 FILLER_111_144
*1162 FILLER_111_2
*1163 FILLER_111_208
*1164 FILLER_111_212
*1165 FILLER_111_215
*1166 FILLER_111_279
*1167 FILLER_111_28
*1168 FILLER_111_283
*1169 FILLER_111_286
*1170 FILLER_111_350
*1171 FILLER_111_354
*1172 FILLER_111_357
*1173 FILLER_111_421
*1174 FILLER_111_425
*1175 FILLER_111_428
*1176 FILLER_111_492
*1177 FILLER_111_496
*1178 FILLER_111_499
*1179 FILLER_111_563
*1180 FILLER_111_567
*1181 FILLER_111_570
*1182 FILLER_111_60
*1183 FILLER_111_634
*1184 FILLER_111_638
*1185 FILLER_111_641
*1186 FILLER_111_68
*1187 FILLER_111_70
*1188 FILLER_111_705
*1189 FILLER_111_709
*1190 FILLER_111_712
*1191 FILLER_111_73
*1192 FILLER_111_776
*1193 FILLER_111_780
*1194 FILLER_111_783
*1195 FILLER_111_847
*1196 FILLER_111_851
*1197 FILLER_111_854
*1198 FILLER_111_918
*1199 FILLER_111_922
*1200 FILLER_111_925
*1201 FILLER_111_989
*1202 FILLER_111_993
*1203 FILLER_111_996
*1204 FILLER_112_101
*1205 FILLER_112_1024
*1206 FILLER_112_1028
*1207 FILLER_112_1031
*1208 FILLER_112_1039
*1209 FILLER_112_1044
*1210 FILLER_112_105
*1211 FILLER_112_108
*1212 FILLER_112_172
*1213 FILLER_112_176
*1214 FILLER_112_179
*1215 FILLER_112_2
*1216 FILLER_112_23
*1217 FILLER_112_243
*1218 FILLER_112_247
*1219 FILLER_112_250
*1220 FILLER_112_31
*1221 FILLER_112_314
*1222 FILLER_112_318
*1223 FILLER_112_321
*1224 FILLER_112_37
*1225 FILLER_112_385
*1226 FILLER_112_389
*1227 FILLER_112_392
*1228 FILLER_112_456
*1229 FILLER_112_460
*1230 FILLER_112_463
*1231 FILLER_112_527
*1232 FILLER_112_531
*1233 FILLER_112_534
*1234 FILLER_112_598
*1235 FILLER_112_602
*1236 FILLER_112_605
*1237 FILLER_112_669
*1238 FILLER_112_673
*1239 FILLER_112_676
*1240 FILLER_112_7
*1241 FILLER_112_740
*1242 FILLER_112_744
*1243 FILLER_112_747
*1244 FILLER_112_811
*1245 FILLER_112_815
*1246 FILLER_112_818
*1247 FILLER_112_882
*1248 FILLER_112_886
*1249 FILLER_112_889
*1250 FILLER_112_953
*1251 FILLER_112_957
*1252 FILLER_112_960
*1253 FILLER_113_1028
*1254 FILLER_113_1044
*1255 FILLER_113_137
*1256 FILLER_113_141
*1257 FILLER_113_144
*1258 FILLER_113_2
*1259 FILLER_113_208
*1260 FILLER_113_212
*1261 FILLER_113_215
*1262 FILLER_113_279
*1263 FILLER_113_283
*1264 FILLER_113_286
*1265 FILLER_113_350
*1266 FILLER_113_354
*1267 FILLER_113_357
*1268 FILLER_113_421
*1269 FILLER_113_425
*1270 FILLER_113_428
*1271 FILLER_113_492
*1272 FILLER_113_496
*1273 FILLER_113_499
*1274 FILLER_113_563
*1275 FILLER_113_567
*1276 FILLER_113_570
*1277 FILLER_113_634
*1278 FILLER_113_638
*1279 FILLER_113_641
*1280 FILLER_113_66
*1281 FILLER_113_70
*1282 FILLER_113_705
*1283 FILLER_113_709
*1284 FILLER_113_712
*1285 FILLER_113_73
*1286 FILLER_113_776
*1287 FILLER_113_780
*1288 FILLER_113_783
*1289 FILLER_113_847
*1290 FILLER_113_851
*1291 FILLER_113_854
*1292 FILLER_113_918
*1293 FILLER_113_922
*1294 FILLER_113_925
*1295 FILLER_113_989
*1296 FILLER_113_993
*1297 FILLER_113_996
*1298 FILLER_114_101
*1299 FILLER_114_1024
*1300 FILLER_114_1028
*1301 FILLER_114_1031
*1302 FILLER_114_1039
*1303 FILLER_114_1043
*1304 FILLER_114_105
*1305 FILLER_114_108
*1306 FILLER_114_172
*1307 FILLER_114_176
*1308 FILLER_114_179
*1309 FILLER_114_2
*1310 FILLER_114_23
*1311 FILLER_114_243
*1312 FILLER_114_247
*1313 FILLER_114_250
*1314 FILLER_114_31
*1315 FILLER_114_314
*1316 FILLER_114_318
*1317 FILLER_114_321
*1318 FILLER_114_37
*1319 FILLER_114_385
*1320 FILLER_114_389
*1321 FILLER_114_392
*1322 FILLER_114_456
*1323 FILLER_114_460
*1324 FILLER_114_463
*1325 FILLER_114_527
*1326 FILLER_114_531
*1327 FILLER_114_534
*1328 FILLER_114_598
*1329 FILLER_114_602
*1330 FILLER_114_605
*1331 FILLER_114_669
*1332 FILLER_114_673
*1333 FILLER_114_676
*1334 FILLER_114_7
*1335 FILLER_114_740
*1336 FILLER_114_744
*1337 FILLER_114_747
*1338 FILLER_114_811
*1339 FILLER_114_815
*1340 FILLER_114_818
*1341 FILLER_114_882
*1342 FILLER_114_886
*1343 FILLER_114_889
*1344 FILLER_114_953
*1345 FILLER_114_957
*1346 FILLER_114_960
*1347 FILLER_115_1028
*1348 FILLER_115_1044
*1349 FILLER_115_137
*1350 FILLER_115_141
*1351 FILLER_115_144
*1352 FILLER_115_2
*1353 FILLER_115_208
*1354 FILLER_115_212
*1355 FILLER_115_215
*1356 FILLER_115_279
*1357 FILLER_115_283
*1358 FILLER_115_286
*1359 FILLER_115_350
*1360 FILLER_115_354
*1361 FILLER_115_357
*1362 FILLER_115_421
*1363 FILLER_115_425
*1364 FILLER_115_428
*1365 FILLER_115_492
*1366 FILLER_115_496
*1367 FILLER_115_499
*1368 FILLER_115_563
*1369 FILLER_115_567
*1370 FILLER_115_570
*1371 FILLER_115_634
*1372 FILLER_115_638
*1373 FILLER_115_641
*1374 FILLER_115_66
*1375 FILLER_115_70
*1376 FILLER_115_705
*1377 FILLER_115_709
*1378 FILLER_115_712
*1379 FILLER_115_73
*1380 FILLER_115_776
*1381 FILLER_115_780
*1382 FILLER_115_783
*1383 FILLER_115_847
*1384 FILLER_115_851
*1385 FILLER_115_854
*1386 FILLER_115_918
*1387 FILLER_115_922
*1388 FILLER_115_925
*1389 FILLER_115_989
*1390 FILLER_115_993
*1391 FILLER_115_996
*1392 FILLER_116_101
*1393 FILLER_116_1024
*1394 FILLER_116_1028
*1395 FILLER_116_1031
*1396 FILLER_116_1039
*1397 FILLER_116_1043
*1398 FILLER_116_105
*1399 FILLER_116_108
*1400 FILLER_116_172
*1401 FILLER_116_176
*1402 FILLER_116_179
*1403 FILLER_116_2
*1404 FILLER_116_243
*1405 FILLER_116_247
*1406 FILLER_116_250
*1407 FILLER_116_314
*1408 FILLER_116_318
*1409 FILLER_116_321
*1410 FILLER_116_34
*1411 FILLER_116_37
*1412 FILLER_116_385
*1413 FILLER_116_389
*1414 FILLER_116_392
*1415 FILLER_116_456
*1416 FILLER_116_460
*1417 FILLER_116_463
*1418 FILLER_116_527
*1419 FILLER_116_531
*1420 FILLER_116_534
*1421 FILLER_116_598
*1422 FILLER_116_602
*1423 FILLER_116_605
*1424 FILLER_116_669
*1425 FILLER_116_673
*1426 FILLER_116_676
*1427 FILLER_116_740
*1428 FILLER_116_744
*1429 FILLER_116_747
*1430 FILLER_116_811
*1431 FILLER_116_815
*1432 FILLER_116_818
*1433 FILLER_116_882
*1434 FILLER_116_886
*1435 FILLER_116_889
*1436 FILLER_116_953
*1437 FILLER_116_957
*1438 FILLER_116_960
*1439 FILLER_117_1028
*1440 FILLER_117_1044
*1441 FILLER_117_137
*1442 FILLER_117_141
*1443 FILLER_117_144
*1444 FILLER_117_2
*1445 FILLER_117_208
*1446 FILLER_117_212
*1447 FILLER_117_215
*1448 FILLER_117_279
*1449 FILLER_117_283
*1450 FILLER_117_286
*1451 FILLER_117_350
*1452 FILLER_117_354
*1453 FILLER_117_357
*1454 FILLER_117_421
*1455 FILLER_117_425
*1456 FILLER_117_428
*1457 FILLER_117_492
*1458 FILLER_117_496
*1459 FILLER_117_499
*1460 FILLER_117_563
*1461 FILLER_117_567
*1462 FILLER_117_570
*1463 FILLER_117_634
*1464 FILLER_117_638
*1465 FILLER_117_641
*1466 FILLER_117_7
*1467 FILLER_117_705
*1468 FILLER_117_709
*1469 FILLER_117_712
*1470 FILLER_117_73
*1471 FILLER_117_776
*1472 FILLER_117_780
*1473 FILLER_117_783
*1474 FILLER_117_847
*1475 FILLER_117_851
*1476 FILLER_117_854
*1477 FILLER_117_918
*1478 FILLER_117_922
*1479 FILLER_117_925
*1480 FILLER_117_989
*1481 FILLER_117_993
*1482 FILLER_117_996
*1483 FILLER_118_101
*1484 FILLER_118_1024
*1485 FILLER_118_1028
*1486 FILLER_118_1031
*1487 FILLER_118_1039
*1488 FILLER_118_1044
*1489 FILLER_118_105
*1490 FILLER_118_108
*1491 FILLER_118_172
*1492 FILLER_118_176
*1493 FILLER_118_179
*1494 FILLER_118_2
*1495 FILLER_118_243
*1496 FILLER_118_247
*1497 FILLER_118_250
*1498 FILLER_118_314
*1499 FILLER_118_318
*1500 FILLER_118_321
*1501 FILLER_118_34
*1502 FILLER_118_37
*1503 FILLER_118_385
*1504 FILLER_118_389
*1505 FILLER_118_392
*1506 FILLER_118_456
*1507 FILLER_118_460
*1508 FILLER_118_463
*1509 FILLER_118_527
*1510 FILLER_118_531
*1511 FILLER_118_534
*1512 FILLER_118_598
*1513 FILLER_118_602
*1514 FILLER_118_605
*1515 FILLER_118_669
*1516 FILLER_118_673
*1517 FILLER_118_676
*1518 FILLER_118_740
*1519 FILLER_118_744
*1520 FILLER_118_747
*1521 FILLER_118_811
*1522 FILLER_118_815
*1523 FILLER_118_818
*1524 FILLER_118_882
*1525 FILLER_118_886
*1526 FILLER_118_889
*1527 FILLER_118_953
*1528 FILLER_118_957
*1529 FILLER_118_960
*1530 FILLER_119_1028
*1531 FILLER_119_1044
*1532 FILLER_119_137
*1533 FILLER_119_141
*1534 FILLER_119_144
*1535 FILLER_119_2
*1536 FILLER_119_208
*1537 FILLER_119_212
*1538 FILLER_119_215
*1539 FILLER_119_279
*1540 FILLER_119_283
*1541 FILLER_119_286
*1542 FILLER_119_350
*1543 FILLER_119_354
*1544 FILLER_119_357
*1545 FILLER_119_421
*1546 FILLER_119_425
*1547 FILLER_119_428
*1548 FILLER_119_492
*1549 FILLER_119_496
*1550 FILLER_119_499
*1551 FILLER_119_563
*1552 FILLER_119_567
*1553 FILLER_119_570
*1554 FILLER_119_634
*1555 FILLER_119_638
*1556 FILLER_119_641
*1557 FILLER_119_7
*1558 FILLER_119_705
*1559 FILLER_119_709
*1560 FILLER_119_712
*1561 FILLER_119_73
*1562 FILLER_119_776
*1563 FILLER_119_780
*1564 FILLER_119_783
*1565 FILLER_119_847
*1566 FILLER_119_851
*1567 FILLER_119_854
*1568 FILLER_119_918
*1569 FILLER_119_922
*1570 FILLER_119_925
*1571 FILLER_119_989
*1572 FILLER_119_993
*1573 FILLER_119_996
*1574 FILLER_11_1028
*1575 FILLER_11_1036
*1576 FILLER_11_1044
*1577 FILLER_11_137
*1578 FILLER_11_141
*1579 FILLER_11_144
*1580 FILLER_11_2
*1581 FILLER_11_208
*1582 FILLER_11_212
*1583 FILLER_11_215
*1584 FILLER_11_279
*1585 FILLER_11_283
*1586 FILLER_11_286
*1587 FILLER_11_350