*SPEF "ieee 1481-1999"
*DESIGN "tiny_user_project"
*DATE "11:11:11 Fri 11 11, 1111"
*VENDOR "OpenRCX"
*PROGRAM "Parallel Extraction"
*VERSION "1.0"
*DESIGN_FLOW "NAME_SCOPE LOCAL" "PIN_CAP NONE"
*DIVIDER /
*DELIMITER :
*BUS_DELIMITER []
*T_UNIT 1 NS
*C_UNIT 1 PF
*R_UNIT 1 OHM
*L_UNIT 1 HENRY

*NAME_MAP
*1 io_in[0]
*2 io_in[10]
*3 io_in[11]
*4 io_in[12]
*5 io_in[13]
*6 io_in[14]
*7 io_in[15]
*8 io_in[16]
*9 io_in[17]
*10 io_in[18]
*11 io_in[19]
*12 io_in[1]
*13 io_in[20]
*14 io_in[21]
*15 io_in[22]
*16 io_in[23]
*17 io_in[24]
*18 io_in[25]
*19 io_in[26]
*20 io_in[27]
*21 io_in[28]
*22 io_in[29]
*23 io_in[2]
*24 io_in[30]
*25 io_in[31]
*26 io_in[32]
*27 io_in[33]
*28 io_in[34]
*29 io_in[35]
*30 io_in[36]
*31 io_in[37]
*32 io_in[3]
*33 io_in[4]
*34 io_in[5]
*35 io_in[6]
*36 io_in[7]
*37 io_in[8]
*38 io_in[9]
*39 net23
*40 net33
*41 net34
*42 net35
*43 net36
*44 net37
*45 net38
*46 net39
*47 net40
*48 net41
*49 net42
*50 net24
*51 net43
*52 net44
*53 net45
*54 net46
*55 net47
*56 net48
*57 net49
*58 net50
*59 net51
*60 net52
*61 net25
*62 net53
*63 net54
*64 net55
*65 net56
*66 net57
*67 net58
*68 net59
*69 net60
*70 net26
*71 net27
*72 net28
*73 net29
*74 net30
*75 net31
*76 net32
*77 net61
*78 net71
*79 net72
*80 net73
*81 net74
*82 net75
*83 net76
*84 net77
*85 net78
*86 net79
*87 net80
*88 net62
*89 net81
*90 net82
*91 io_out[22]
*92 io_out[23]
*93 io_out[24]
*94 io_out[25]
*95 io_out[26]
*96 io_out[27]
*97 io_out[28]
*98 io_out[29]
*99 net63
*100 net83
*101 net84
*102 net85
*103 net86
*104 net87
*105 net88
*106 net89
*107 net90
*108 net64
*109 net65
*110 net66
*111 net67
*112 net68
*113 net69
*114 net70
*115 la_data_in[0]
*116 la_data_in[10]
*117 la_data_in[11]
*118 la_data_in[12]
*119 la_data_in[13]
*120 la_data_in[14]
*121 la_data_in[15]
*122 la_data_in[16]
*123 la_data_in[17]
*124 la_data_in[18]
*125 la_data_in[19]
*126 la_data_in[1]
*127 la_data_in[20]
*128 la_data_in[21]
*129 la_data_in[22]
*130 la_data_in[23]
*131 la_data_in[24]
*132 la_data_in[25]
*133 la_data_in[26]
*134 la_data_in[27]
*135 la_data_in[28]
*136 la_data_in[29]
*137 la_data_in[2]
*138 la_data_in[30]
*139 la_data_in[31]
*140 la_data_in[32]
*141 la_data_in[33]
*142 la_data_in[34]
*143 la_data_in[35]
*144 la_data_in[36]
*145 la_data_in[37]
*146 la_data_in[38]
*147 la_data_in[39]
*148 la_data_in[3]
*149 la_data_in[40]
*150 la_data_in[41]
*151 la_data_in[42]
*152 la_data_in[43]
*153 la_data_in[44]
*154 la_data_in[45]
*155 la_data_in[46]
*156 la_data_in[47]
*157 la_data_in[48]
*158 la_data_in[49]
*159 la_data_in[4]
*160 la_data_in[50]
*161 la_data_in[51]
*162 la_data_in[52]
*163 la_data_in[53]
*164 la_data_in[54]
*165 la_data_in[55]
*166 la_data_in[56]
*167 la_data_in[57]
*168 la_data_in[58]
*169 la_data_in[59]
*170 la_data_in[5]
*171 la_data_in[60]
*172 la_data_in[61]
*173 la_data_in[62]
*174 la_data_in[63]
*175 la_data_in[6]
*176 la_data_in[7]
*177 la_data_in[8]
*178 la_data_in[9]
*179 net91
*180 net101
*181 net102
*182 net103
*183 net104
*184 net105
*185 net106
*186 net107
*187 net108
*188 net109
*189 net110
*190 net92
*191 net111
*192 net112
*193 net113
*194 net114
*195 net115
*196 net116
*197 net117
*198 net118
*199 net119
*200 net120
*201 net93
*202 net121
*203 net122
*204 net123
*205 net124
*206 net125
*207 net126
*208 net127
*209 net128
*210 net129
*211 net130
*212 net94
*213 net131
*214 net132
*215 net133
*216 net134
*217 net135
*218 net136
*219 net137
*220 net138
*221 net139
*222 net140
*223 net95
*224 net141
*225 net142
*226 net143
*227 net144
*228 net145
*229 net146
*230 net147
*231 net148
*232 net149
*233 net150
*234 net96
*235 net151
*236 net152
*237 net153
*238 net154
*239 net97
*240 net98
*241 net99
*242 net100
*243 la_oenb[0]
*244 la_oenb[10]
*245 la_oenb[11]
*246 la_oenb[12]
*247 la_oenb[13]
*248 la_oenb[14]
*249 la_oenb[15]
*250 la_oenb[16]
*251 la_oenb[17]
*252 la_oenb[18]
*253 la_oenb[19]
*254 la_oenb[1]
*255 la_oenb[20]
*256 la_oenb[21]
*257 la_oenb[22]
*258 la_oenb[23]
*259 la_oenb[24]
*260 la_oenb[25]
*261 la_oenb[26]
*262 la_oenb[27]
*263 la_oenb[28]
*264 la_oenb[29]
*265 la_oenb[2]
*266 la_oenb[30]
*267 la_oenb[31]
*268 la_oenb[32]
*269 la_oenb[33]
*270 la_oenb[34]
*271 la_oenb[35]
*272 la_oenb[36]
*273 la_oenb[37]
*274 la_oenb[38]
*275 la_oenb[39]
*276 la_oenb[3]
*277 la_oenb[40]
*278 la_oenb[41]
*279 la_oenb[42]
*280 la_oenb[43]
*281 la_oenb[44]
*282 la_oenb[45]
*283 la_oenb[46]
*284 la_oenb[47]
*285 la_oenb[48]
*286 la_oenb[49]
*287 la_oenb[4]
*288 la_oenb[50]
*289 la_oenb[51]
*290 la_oenb[52]
*291 la_oenb[53]
*292 la_oenb[54]
*293 la_oenb[55]
*294 la_oenb[56]
*295 la_oenb[57]
*296 la_oenb[58]
*297 la_oenb[59]
*298 la_oenb[5]
*299 la_oenb[60]
*300 la_oenb[61]
*301 la_oenb[62]
*302 la_oenb[63]
*303 la_oenb[6]
*304 la_oenb[7]
*305 la_oenb[8]
*306 la_oenb[9]
*307 user_clock2
*308 net155
*309 net156
*310 net157
*313 wb_clk_i
*314 wb_rst_i
*315 net158
*316 wbs_adr_i[0]
*317 wbs_adr_i[10]
*318 wbs_adr_i[11]
*319 wbs_adr_i[12]
*320 wbs_adr_i[13]
*321 wbs_adr_i[14]
*322 wbs_adr_i[15]
*323 wbs_adr_i[16]
*324 wbs_adr_i[17]
*325 wbs_adr_i[18]
*326 wbs_adr_i[19]
*327 wbs_adr_i[1]
*328 wbs_adr_i[20]
*329 wbs_adr_i[21]
*330 wbs_adr_i[22]
*331 wbs_adr_i[23]
*332 wbs_adr_i[24]
*333 wbs_adr_i[25]
*334 wbs_adr_i[26]
*335 wbs_adr_i[27]
*336 wbs_adr_i[28]
*337 wbs_adr_i[29]
*338 wbs_adr_i[2]
*339 wbs_adr_i[30]
*340 wbs_adr_i[31]
*341 wbs_adr_i[3]
*342 wbs_adr_i[4]
*343 wbs_adr_i[5]
*344 wbs_adr_i[6]
*345 wbs_adr_i[7]
*346 wbs_adr_i[8]
*347 wbs_adr_i[9]
*348 wbs_cyc_i
*349 wbs_dat_i[0]
*350 wbs_dat_i[10]
*351 wbs_dat_i[11]
*352 wbs_dat_i[12]
*353 wbs_dat_i[13]
*354 wbs_dat_i[14]
*355 wbs_dat_i[15]
*356 wbs_dat_i[16]
*357 wbs_dat_i[17]
*358 wbs_dat_i[18]
*359 wbs_dat_i[19]
*360 wbs_dat_i[1]
*361 wbs_dat_i[20]
*362 wbs_dat_i[21]
*363 wbs_dat_i[22]
*364 wbs_dat_i[23]
*365 wbs_dat_i[24]
*366 wbs_dat_i[25]
*367 wbs_dat_i[26]
*368 wbs_dat_i[27]
*369 wbs_dat_i[28]
*370 wbs_dat_i[29]
*371 wbs_dat_i[2]
*372 wbs_dat_i[30]
*373 wbs_dat_i[31]
*374 wbs_dat_i[3]
*375 wbs_dat_i[4]
*376 wbs_dat_i[5]
*377 wbs_dat_i[6]
*378 wbs_dat_i[7]
*379 wbs_dat_i[8]
*380 wbs_dat_i[9]
*381 net159
*382 net169
*383 net170
*384 net171
*385 net172
*386 net173
*387 net174
*388 net175
*389 net176
*390 net177
*391 net178
*392 net160
*393 net179
*394 net180
*395 net181
*396 net182
*397 net183
*398 net184
*399 net185
*400 net186
*401 net187
*402 net188
*403 net161
*404 net189
*405 net190
*406 net162
*407 net163
*408 net164
*409 net165
*410 net166
*411 net167
*412 net168
*413 wbs_sel_i[0]
*414 wbs_sel_i[1]
*415 wbs_sel_i[2]
*416 wbs_sel_i[3]
*417 wbs_stb_i
*418 wbs_we_i
*419 _000_
*420 _001_
*421 _002_
*422 _003_
*423 _004_
*424 _005_
*425 _006_
*426 _007_
*427 _008_
*428 _009_
*429 _010_
*430 _011_
*431 _012_
*432 _013_
*433 _014_
*434 _015_
*435 _016_
*436 _017_
*437 _018_
*438 _019_
*439 _020_
*440 _021_
*441 _022_
*442 _023_
*443 _024_
*444 _025_
*445 _026_
*446 _027_
*447 _028_
*448 _029_
*449 _030_
*450 _031_
*451 _032_
*452 _033_
*453 _034_
*454 _035_
*455 _036_
*456 _037_
*457 _038_
*458 _039_
*459 _040_
*460 _041_
*461 _042_
*462 _043_
*463 _044_
*464 _045_
*465 _046_
*466 net1
*467 net10
*468 net11
*469 net12
*470 net13
*471 net14
*472 net15
*473 net16
*474 net17
*475 net18
*476 net19
*477 net2
*478 net20
*479 net21
*480 net22
*481 net3
*482 net4
*483 net5
*484 net6
*485 net7
*486 net8
*487 net9
*488 ANTENNA__047__I
*489 ANTENNA__048__A2
*490 ANTENNA__049__I
*491 ANTENNA__050__I0
*492 ANTENNA__050__I1
*493 ANTENNA__050__S
*494 ANTENNA__051__I
*495 ANTENNA__052__I1
*496 ANTENNA__052__S
*497 ANTENNA__053__A1
*498 ANTENNA__054__A1
*499 ANTENNA__054__B
*500 ANTENNA__055__A1
*501 ANTENNA__057__I
*502 ANTENNA__058__I0
*503 ANTENNA__058__I1
*504 ANTENNA__058__S
*505 ANTENNA__059__I1
*506 ANTENNA__059__S
*507 ANTENNA__060__A1
*508 ANTENNA__061__A1
*509 ANTENNA__061__B
*510 ANTENNA__062__A1
*511 ANTENNA__062__A2
*512 ANTENNA__063__A1
*513 ANTENNA__063__A2
*514 ANTENNA__066__A1
*515 ANTENNA__066__A2
*516 ANTENNA__066__A3
*517 ANTENNA__067__A1
*518 ANTENNA__068__A1
*519 ANTENNA__068__C
*520 ANTENNA__070__A2
*521 ANTENNA__070__B
*522 ANTENNA__071__I0
*523 ANTENNA__071__I1
*524 ANTENNA__071__S
*525 ANTENNA__072__A1
*526 ANTENNA__074__I
*527 ANTENNA__075__A1
*528 ANTENNA__075__A2
*529 ANTENNA__075__B
*530 ANTENNA__076__A2
*531 ANTENNA__077__A1
*532 ANTENNA__077__A2
*533 ANTENNA__080__A1
*534 ANTENNA__080__B2
*535 ANTENNA__082__A1
*536 ANTENNA__082__B
*537 ANTENNA__083__I
*538 ANTENNA__084__A2
*539 ANTENNA__085__A1
*540 ANTENNA__085__A2
*541 ANTENNA__085__C
*542 ANTENNA__086__I
*543 ANTENNA__087__A2
*544 ANTENNA__087__B
*545 ANTENNA__088__A1
*546 ANTENNA__088__A2
*547 ANTENNA__092__A1
*548 ANTENNA__092__A2
*549 ANTENNA__092__A3
*550 ANTENNA__092__A4
*551 ANTENNA__094__A1
*552 ANTENNA__094__A2
*553 ANTENNA__095__A2
*554 ANTENNA__095__C
*555 ANTENNA__096__A1
*556 ANTENNA__096__A2
*557 ANTENNA__096__A3
*558 ANTENNA__097__I
*559 ANTENNA__098__A1
*560 ANTENNA__098__B
*561 ANTENNA__100__A2
*562 ANTENNA_input10_I
*563 ANTENNA_input11_I
*564 ANTENNA_input12_I
*565 ANTENNA_input13_I
*566 ANTENNA_input14_I
*567 ANTENNA_input1_I
*568 ANTENNA_input2_I
*569 ANTENNA_input3_I
*570 ANTENNA_input4_I
*571 ANTENNA_input5_I
*572 ANTENNA_input6_I
*573 ANTENNA_input7_I
*574 ANTENNA_input8_I
*575 ANTENNA_input9_I
*576 ANTENNA_output15_I
*577 ANTENNA_output16_I
*578 ANTENNA_output17_I
*579 ANTENNA_output18_I
*580 ANTENNA_output19_I
*581 ANTENNA_output20_I
*582 ANTENNA_output21_I
*583 ANTENNA_output22_I
*584 FILLER_0_1005
*585 FILLER_0_101
*586 FILLER_0_1013
*587 FILLER_0_1017
*588 FILLER_0_1025
*589 FILLER_0_1037
*590 FILLER_0_1039
*591 FILLER_0_1044
*592 FILLER_0_107
*593 FILLER_0_11
*594 FILLER_0_115
*595 FILLER_0_119
*596 FILLER_0_125
*597 FILLER_0_133
*598 FILLER_0_137
*599 FILLER_0_139
*600 FILLER_0_142
*601 FILLER_0_174
*602 FILLER_0_177
*603 FILLER_0_2
*604 FILLER_0_209
*605 FILLER_0_212
*606 FILLER_0_228
*607 FILLER_0_233
*608 FILLER_0_237
*609 FILLER_0_239
*610 FILLER_0_244
*611 FILLER_0_247
*612 FILLER_0_251
*613 FILLER_0_257
*614 FILLER_0_263
*615 FILLER_0_27
*616 FILLER_0_279
*617 FILLER_0_282
*618 FILLER_0_287
*619 FILLER_0_299
*620 FILLER_0_317
*621 FILLER_0_323
*622 FILLER_0_329
*623 FILLER_0_345
*624 FILLER_0_349
*625 FILLER_0_352
*626 FILLER_0_368
*627 FILLER_0_37
*628 FILLER_0_384
*629 FILLER_0_387
*630 FILLER_0_395
*631 FILLER_0_411
*632 FILLER_0_419
*633 FILLER_0_422
*634 FILLER_0_426
*635 FILLER_0_431
*636 FILLER_0_447
*637 FILLER_0_449
*638 FILLER_0_454
*639 FILLER_0_457
*640 FILLER_0_462
*641 FILLER_0_466
*642 FILLER_0_468
*643 FILLER_0_483
*644 FILLER_0_489
*645 FILLER_0_492
*646 FILLER_0_508
*647 FILLER_0_516
*648 FILLER_0_521
*649 FILLER_0_527
*650 FILLER_0_53
*651 FILLER_0_543
*652 FILLER_0_551
*653 FILLER_0_559
*654 FILLER_0_562
*655 FILLER_0_59
*656 FILLER_0_594
*657 FILLER_0_597
*658 FILLER_0_6
*659 FILLER_0_602
*660 FILLER_0_608
*661 FILLER_0_612
*662 FILLER_0_617
*663 FILLER_0_625
*664 FILLER_0_629
*665 FILLER_0_632
*666 FILLER_0_65
*667 FILLER_0_664
*668 FILLER_0_667
*669 FILLER_0_672
*670 FILLER_0_676
*671 FILLER_0_678
*672 FILLER_0_683
*673 FILLER_0_69
*674 FILLER_0_695
*675 FILLER_0_699
*676 FILLER_0_702
*677 FILLER_0_718
*678 FILLER_0_72
*679 FILLER_0_726
*680 FILLER_0_731
*681 FILLER_0_737
*682 FILLER_0_749
*683 FILLER_0_761
*684 FILLER_0_765
*685 FILLER_0_769
*686 FILLER_0_77
*687 FILLER_0_772
*688 FILLER_0_787
*689 FILLER_0_791
*690 FILLER_0_799
*691 FILLER_0_803
*692 FILLER_0_807
*693 FILLER_0_827
*694 FILLER_0_835
*695 FILLER_0_839
*696 FILLER_0_842
*697 FILLER_0_874
*698 FILLER_0_877
*699 FILLER_0_885
*700 FILLER_0_893
*701 FILLER_0_909
*702 FILLER_0_912
*703 FILLER_0_93
*704 FILLER_0_944
*705 FILLER_0_947
*706 FILLER_0_952
*707 FILLER_0_960
*708 FILLER_0_964
*709 FILLER_0_966
*710 FILLER_0_971
*711 FILLER_0_979
*712 FILLER_0_982
*713 FILLER_0_987
*714 FILLER_100_101
*715 FILLER_100_1024
*716 FILLER_100_1028
*717 FILLER_100_1031
*718 FILLER_100_1039
*719 FILLER_100_1043
*720 FILLER_100_105
*721 FILLER_100_108
*722 FILLER_100_172
*723 FILLER_100_176
*724 FILLER_100_179
*725 FILLER_100_2
*726 FILLER_100_243
*727 FILLER_100_247
*728 FILLER_100_250
*729 FILLER_100_314
*730 FILLER_100_318
*731 FILLER_100_321
*732 FILLER_100_34
*733 FILLER_100_37
*734 FILLER_100_385
*735 FILLER_100_389
*736 FILLER_100_392
*737 FILLER_100_456
*738 FILLER_100_460
*739 FILLER_100_463
*740 FILLER_100_527
*741 FILLER_100_531
*742 FILLER_100_534
*743 FILLER_100_598
*744 FILLER_100_602
*745 FILLER_100_605
*746 FILLER_100_669
*747 FILLER_100_673
*748 FILLER_100_676
*749 FILLER_100_740
*750 FILLER_100_744
*751 FILLER_100_747
*752 FILLER_100_811
*753 FILLER_100_815
*754 FILLER_100_818
*755 FILLER_100_882
*756 FILLER_100_886
*757 FILLER_100_889
*758 FILLER_100_953
*759 FILLER_100_957
*760 FILLER_100_960
*761 FILLER_101_1028
*762 FILLER_101_1036
*763 FILLER_101_1044
*764 FILLER_101_137
*765 FILLER_101_141
*766 FILLER_101_144
*767 FILLER_101_2
*768 FILLER_101_208
*769 FILLER_101_212
*770 FILLER_101_215
*771 FILLER_101_279
*772 FILLER_101_283
*773 FILLER_101_286
*774 FILLER_101_350
*775 FILLER_101_354
*776 FILLER_101_357
*777 FILLER_101_421
*778 FILLER_101_425
*779 FILLER_101_428
*780 FILLER_101_492
*781 FILLER_101_496
*782 FILLER_101_499
*783 FILLER_101_563
*784 FILLER_101_567
*785 FILLER_101_570
*786 FILLER_101_634
*787 FILLER_101_638
*788 FILLER_101_641
*789 FILLER_101_66
*790 FILLER_101_70
*791 FILLER_101_705
*792 FILLER_101_709
*793 FILLER_101_712
*794 FILLER_101_73
*795 FILLER_101_776
*796 FILLER_101_780
*797 FILLER_101_783
*798 FILLER_101_847
*799 FILLER_101_851
*800 FILLER_101_854
*801 FILLER_101_918
*802 FILLER_101_922
*803 FILLER_101_925
*804 FILLER_101_989
*805 FILLER_101_993
*806 FILLER_101_996
*807 FILLER_102_101
*808 FILLER_102_1024
*809 FILLER_102_1028
*810 FILLER_102_1031
*811 FILLER_102_1039
*812 FILLER_102_1043
*813 FILLER_102_105
*814 FILLER_102_108
*815 FILLER_102_13
*816 FILLER_102_172
*817 FILLER_102_176
*818 FILLER_102_179
*819 FILLER_102_2
*820 FILLER_102_243
*821 FILLER_102_247
*822 FILLER_102_250
*823 FILLER_102_29
*824 FILLER_102_314
*825 FILLER_102_318
*826 FILLER_102_321
*827 FILLER_102_33
*828 FILLER_102_37
*829 FILLER_102_385
*830 FILLER_102_389
*831 FILLER_102_392
*832 FILLER_102_456
*833 FILLER_102_460
*834 FILLER_102_463
*835 FILLER_102_527
*836 FILLER_102_531
*837 FILLER_102_534
*838 FILLER_102_598
*839 FILLER_102_602
*840 FILLER_102_605
*841 FILLER_102_669
*842 FILLER_102_673
*843 FILLER_102_676
*844 FILLER_102_7
*845 FILLER_102_740
*846 FILLER_102_744
*847 FILLER_102_747
*848 FILLER_102_811
*849 FILLER_102_815
*850 FILLER_102_818
*851 FILLER_102_882
*852 FILLER_102_886
*853 FILLER_102_889
*854 FILLER_102_953
*855 FILLER_102_957
*856 FILLER_102_960
*857 FILLER_103_1028
*858 FILLER_103_1036
*859 FILLER_103_1044
*860 FILLER_103_137
*861 FILLER_103_141
*862 FILLER_103_144
*863 FILLER_103_2
*864 FILLER_103_208
*865 FILLER_103_212
*866 FILLER_103_215
*867 FILLER_103_279
*868 FILLER_103_283
*869 FILLER_103_286
*870 FILLER_103_350
*871 FILLER_103_354
*872 FILLER_103_357
*873 FILLER_103_421
*874 FILLER_103_425
*875 FILLER_103_428
*876 FILLER_103_492
*877 FILLER_103_496
*878 FILLER_103_499
*879 FILLER_103_563
*880 FILLER_103_567
*881 FILLER_103_570
*882 FILLER_103_634
*883 FILLER_103_638
*884 FILLER_103_641
*885 FILLER_103_66
*886 FILLER_103_70
*887 FILLER_103_705
*888 FILLER_103_709
*889 FILLER_103_712
*890 FILLER_103_73
*891 FILLER_103_776
*892 FILLER_103_780
*893 FILLER_103_783
*894 FILLER_103_847
*895 FILLER_103_851
*896 FILLER_103_854
*897 FILLER_103_918
*898 FILLER_103_922
*899 FILLER_103_925
*900 FILLER_103_989
*901 FILLER_103_993
*902 FILLER_103_996
*903 FILLER_104_101
*904 FILLER_104_1024
*905 FILLER_104_1028
*906 FILLER_104_1031
*907 FILLER_104_1039
*908 FILLER_104_1043
*909 FILLER_104_105
*910 FILLER_104_108
*911 FILLER_104_172
*912 FILLER_104_176
*913 FILLER_104_179
*914 FILLER_104_2
*915 FILLER_104_23
*916 FILLER_104_243
*917 FILLER_104_247
*918 FILLER_104_250
*919 FILLER_104_31
*920 FILLER_104_314
*921 FILLER_104_318
*922 FILLER_104_321
*923 FILLER_104_37
*924 FILLER_104_385
*925 FILLER_104_389
*926 FILLER_104_392
*927 FILLER_104_456
*928 FILLER_104_460
*929 FILLER_104_463
*930 FILLER_104_527
*931 FILLER_104_531
*932 FILLER_104_534
*933 FILLER_104_598
*934 FILLER_104_602
*935 FILLER_104_605
*936 FILLER_104_669
*937 FILLER_104_673
*938 FILLER_104_676
*939 FILLER_104_7
*940 FILLER_104_740
*941 FILLER_104_744
*942 FILLER_104_747
*943 FILLER_104_811
*944 FILLER_104_815
*945 FILLER_104_818
*946 FILLER_104_882
*947 FILLER_104_886
*948 FILLER_104_889
*949 FILLER_104_953
*950 FILLER_104_957
*951 FILLER_104_960
*952 FILLER_105_1028
*953 FILLER_105_1044
*954 FILLER_105_137
*955 FILLER_105_141
*956 FILLER_105_144
*957 FILLER_105_2
*958 FILLER_105_208
*959 FILLER_105_212
*960 FILLER_105_215
*961 FILLER_105_279
*962 FILLER_105_283
*963 FILLER_105_286
*964 FILLER_105_350
*965 FILLER_105_354
*966 FILLER_105_357
*967 FILLER_105_421
*968 FILLER_105_425
*969 FILLER_105_428
*970 FILLER_105_492
*971 FILLER_105_496
*972 FILLER_105_499
*973 FILLER_105_563
*974 FILLER_105_567
*975 FILLER_105_570
*976 FILLER_105_634
*977 FILLER_105_638
*978 FILLER_105_641
*979 FILLER_105_66
*980 FILLER_105_70
*981 FILLER_105_705
*982 FILLER_105_709
*983 FILLER_105_712
*984 FILLER_105_73
*985 FILLER_105_776
*986 FILLER_105_780
*987 FILLER_105_783
*988 FILLER_105_847
*989 FILLER_105_851
*990 FILLER_105_854
*991 FILLER_105_918
*992 FILLER_105_922
*993 FILLER_105_925
*994 FILLER_105_989
*995 FILLER_105_993
*996 FILLER_105_996
*997 FILLER_106_101
*998 FILLER_106_1024
*999 FILLER_106_1028
*1000 FILLER_106_1031
*1001 FILLER_106_1039
*1002 FILLER_106_1043
*1003 FILLER_106_105
*1004 FILLER_106_108
*1005 FILLER_106_172
*1006 FILLER_106_176
*1007 FILLER_106_179
*1008 FILLER_106_2
*1009 FILLER_106_243
*1010 FILLER_106_247
*1011 FILLER_106_250
*1012 FILLER_106_314
*1013 FILLER_106_318
*1014 FILLER_106_321
*1015 FILLER_106_34
*1016 FILLER_106_37
*1017 FILLER_106_385
*1018 FILLER_106_389
*1019 FILLER_106_392
*1020 FILLER_106_456
*1021 FILLER_106_460
*1022 FILLER_106_463
*1023 FILLER_106_527
*1024 FILLER_106_531
*1025 FILLER_106_534
*1026 FILLER_106_598
*1027 FILLER_106_602
*1028 FILLER_106_605
*1029 FILLER_106_669
*1030 FILLER_106_673
*1031 FILLER_106_676
*1032 FILLER_106_740
*1033 FILLER_106_744
*1034 FILLER_106_747
*1035 FILLER_106_811
*1036 FILLER_106_815
*1037 FILLER_106_818
*1038 FILLER_106_882
*1039 FILLER_106_886
*1040 FILLER_106_889
*1041 FILLER_106_953
*1042 FILLER_106_957
*1043 FILLER_106_960
*1044 FILLER_107_1028
*1045 FILLER_107_1044
*1046 FILLER_107_137
*1047 FILLER_107_141
*1048 FILLER_107_144
*1049 FILLER_107_2
*1050 FILLER_107_208
*1051 FILLER_107_212
*1052 FILLER_107_215
*1053 FILLER_107_279
*1054 FILLER_107_283
*1055 FILLER_107_286
*1056 FILLER_107_350
*1057 FILLER_107_354
*1058 FILLER_107_357
*1059 FILLER_107_421
*1060 FILLER_107_425
*1061 FILLER_107_428
*1062 FILLER_107_492
*1063 FILLER_107_496
*1064 FILLER_107_499
*1065 FILLER_107_563
*1066 FILLER_107_567
*1067 FILLER_107_570
*1068 FILLER_107_634
*1069 FILLER_107_638
*1070 FILLER_107_641
*1071 FILLER_107_66
*1072 FILLER_107_70
*1073 FILLER_107_705
*1074 FILLER_107_709
*1075 FILLER_107_712
*1076 FILLER_107_73
*1077 FILLER_107_776
*1078 FILLER_107_780
*1079 FILLER_107_783
*1080 FILLER_107_847
*1081 FILLER_107_851
*1082 FILLER_107_854
*1083 FILLER_107_918
*1084 FILLER_107_922
*1085 FILLER_107_925
*1086 FILLER_107_989
*1087 FILLER_107_993
*1088 FILLER_107_996
*1089 FILLER_108_101
*1090 FILLER_108_1024
*1091 FILLER_108_1028
*1092 FILLER_108_1031
*1093 FILLER_108_1039
*1094 FILLER_108_1044
*1095 FILLER_108_105
*1096 FILLER_108_108
*1097 FILLER_108_172
*1098 FILLER_108_176
*1099 FILLER_108_179
*1100 FILLER_108_2
*1101 FILLER_108_243
*1102 FILLER_108_247
*1103 FILLER_108_250
*1104 FILLER_108_314
*1105 FILLER_108_318
*1106 FILLER_108_321
*1107 FILLER_108_34
*1108 FILLER_108_37
*1109 FILLER_108_385
*1110 FILLER_108_389
*1111 FILLER_108_392
*1112 FILLER_108_456
*1113 FILLER_108_460
*1114 FILLER_108_463
*1115 FILLER_108_527
*1116 FILLER_108_531
*1117 FILLER_108_534
*1118 FILLER_108_598
*1119 FILLER_108_602
*1120 FILLER_108_605
*1121 FILLER_108_669
*1122 FILLER_108_673
*1123 FILLER_108_676
*1124 FILLER_108_740
*1125 FILLER_108_744
*1126 FILLER_108_747
*1127 FILLER_108_811
*1128 FILLER_108_815
*1129 FILLER_108_818
*1130 FILLER_108_882
*1131 FILLER_108_886
*1132 FILLER_108_889
*1133 FILLER_108_953
*1134 FILLER_108_957
*1135 FILLER_108_960
*1136 FILLER_109_1028
*1137 FILLER_109_1044
*1138 FILLER_109_137
*1139 FILLER_109_141
*1140 FILLER_109_144
*1141 FILLER_109_2
*1142 FILLER_109_208
*1143 FILLER_109_212
*1144 FILLER_109_215
*1145 FILLER_109_279
*1146 FILLER_109_283
*1147 FILLER_109_286
*1148 FILLER_109_350
*1149 FILLER_109_354
*1150 FILLER_109_357
*1151 FILLER_109_421
*1152 FILLER_109_425
*1153 FILLER_109_428
*1154 FILLER_109_492
*1155 FILLER_109_496
*1156 FILLER_109_499
*1157 FILLER_109_563
*1158 FILLER_109_567
*1159 FILLER_109_570
*1160 FILLER_109_634
*1161 FILLER_109_638
*1162 FILLER_109_641
*1163 FILLER_109_66
*1164 FILLER_109_70
*1165 FILLER_109_705
*1166 FILLER_109_709
*1167 FILLER_109_712
*1168 FILLER_109_73
*1169 FILLER_109_776
*1170 FILLER_109_780
*1171 FILLER_109_783
*1172 FILLER_109_847
*1173 FILLER_109_851
*1174 FILLER_109_854
*1175 FILLER_109_918
*1176 FILLER_109_922
*1177 FILLER_109_925
*1178 FILLER_109_989
*1179 FILLER_109_993
*1180 FILLER_109_996
*1181 FILLER_10_101
*1182 FILLER_10_1024
*1183 FILLER_10_1028
*1184 FILLER_10_1031
*1185 FILLER_10_1039
*1186 FILLER_10_1043
*1187 FILLER_10_105
*1188 FILLER_10_108
*1189 FILLER_10_172
*1190 FILLER_10_176
*1191 FILLER_10_179
*1192 FILLER_10_2
*1193 FILLER_10_23
*1194 FILLER_10_243
*1195 FILLER_10_247
*1196 FILLER_10_250
*1197 FILLER_10_31
*1198 FILLER_10_314
*1199 FILLER_10_318
*1200 FILLER_10_321
*1201 FILLER_10_37
*1202 FILLER_10_385
*1203 FILLER_10_389
*1204 FILLER_10_392
*1205 FILLER_10_456
*1206 FILLER_10_460
*1207 FILLER_10_463
*1208 FILLER_10_527
*1209 FILLER_10_531
*1210 FILLER_10_534
*1211 FILLER_10_598
*1212 FILLER_10_602
*1213 FILLER_10_605
*1214 FILLER_10_669
*1215 FILLER_10_673
*1216 FILLER_10_676
*1217 FILLER_10_7
*1218 FILLER_10_740
*1219 FILLER_10_744
*1220 FILLER_10_747
*1221 FILLER_10_811
*1222 FILLER_10_815
*1223 FILLER_10_818
*1224 FILLER_10_882
*1225 FILLER_10_886
*1226 FILLER_10_889
*1227 FILLER_10_953
*1228 FILLER_10_957
*1229 FILLER_10_960
*1230 FILLER_110_101
*1231 FILLER_110_1024
*1232 FILLER_110_1028
*1233 FILLER_110_1031
*1234 FILLER_110_1039
*1235 FILLER_110_1043
*1236 FILLER_110_105
*1237 FILLER_110_108
*1238 FILLER_110_172
*1239 FILLER_110_176
*1240 FILLER_110_179
*1241 FILLER_110_2
*1242 FILLER_110_21
*1243 FILLER_110_243
*1244 FILLER_110_247
*1245 FILLER_110_250
*1246 FILLER_110_29
*1247 FILLER_110_314
*1248 FILLER_110_318
*1249 FILLER_110_321
*1250 FILLER_110_33
*1251 FILLER_110_37
*1252 FILLER_110_385
*1253 FILLER_110_389
*1254 FILLER_110_392
*1255 FILLER_110_456
*1256 FILLER_110_460
*1257 FILLER_110_463
*1258 FILLER_110_5
*1259 FILLER_110_527
*1260 FILLER_110_531
*1261 FILLER_110_534
*1262 FILLER_110_598
*1263 FILLER_110_602
*1264 FILLER_110_605
*1265 FILLER_110_669
*1266 FILLER_110_673
*1267 FILLER_110_676
*1268 FILLER_110_740
*1269 FILLER_110_744
*1270 FILLER_110_747
*1271 FILLER_110_811
*1272 FILLER_110_815
*1273 FILLER_110_818
*1274 FILLER_110_882
*1275 FILLER_110_886
*1276 FILLER_110_889
*1277 FILLER_110_953
*1278 FILLER_110_957
*1279 FILLER_110_960
*1280 FILLER_111_1028
*1281 FILLER_111_1044
*1282 FILLER_111_137
*1283 FILLER_111_141
*1284 FILLER_111_144
*1285 FILLER_111_2
*1286 FILLER_111_208
*1287 FILLER_111_212
*1288 FILLER_111_215
*1289 FILLER_111_279
*1290 FILLER_111_28
*1291 FILLER_111_283
*1292 FILLER_111_286
*1293 FILLER_111_350
*1294 FILLER_111_354
*1295 FILLER_111_357
*1296 FILLER_111_421
*1297 FILLER_111_425
*1298 FILLER_111_428
*1299 FILLER_111_492
*1300 FILLER_111_496
*1301 FILLER_111_499
*1302 FILLER_111_563
*1303 FILLER_111_567
*1304 FILLER_111_570
*1305 FILLER_111_60
*1306 FILLER_111_634
*1307 FILLER_111_638
*1308 FILLER_111_641
*1309 FILLER_111_68
*1310 FILLER_111_70
*1311 FILLER_111_705
*1312 FILLER_111_709
*1313 FILLER_111_712
*1314 FILLER_111_73
*1315 FILLER_111_776
*1316 FILLER_111_780
*1317 FILLER_111_783
*1318 FILLER_111_847
*1319 FILLER_111_851
*1320 FILLER_111_854
*1321 FILLER_111_918
*1322 FILLER_111_922
*1323 FILLER_111_925
*1324 FILLER_111_989
*1325 FILLER_111_993
*1326 FILLER_111_996
*1327 FILLER_112_101
*1328 FILLER_112_1024
*1329 FILLER_112_1028
*1330 FILLER_112_1031
*1331 FILLER_112_1039
*1332 FILLER_112_1044
*1333 FILLER_112_105
*1334 FILLER_112_108
*1335 FILLER_112_172
*1336 FILLER_112_176
*1337 FILLER_112_179
*1338 FILLER_112_2
*1339 FILLER_112_23
*1340 FILLER_112_243
*1341 FILLER_112_247
*1342 FILLER_112_250
*1343 FILLER_112_31
*1344 FILLER_112_314
*1345 FILLER_112_318
*1346 FILLER_112_321
*1347 FILLER_112_37
*1348 FILLER_112_385
*1349 FILLER_112_389
*1350 FILLER_112_392
*1351 FILLER_112_456
*1352 FILLER_112_460
*1353 FILLER_112_463
*1354 FILLER_112_527
*1355 FILLER_112_531
*1356 FILLER_112_534
*1357 FILLER_112_598
*1358 FILLER_112_602
*1359 FILLER_112_605
*1360 FILLER_112_669
*1361 FILLER_112_673
*1362 FILLER_112_676
*1363 FILLER_112_7
*1364 FILLER_112_740
*1365 FILLER_112_744
*1366 FILLER_112_747
*1367 FILLER_112_811
*1368 FILLER_112_815
*1369 FILLER_112_818
*1370 FILLER_112_882
*1371 FILLER_112_886
*1372 FILLER_112_889
*1373 FILLER_112_953
*1374 FILLER_112_957
*1375 FILLER_112_960
*1376 FILLER_113_1028
*1377 FILLER_113_1044
*1378 FILLER_113_137
*1379 FILLER_113_141
*1380 FILLER_113_144
*1381 FILLER_113_2
*1382 FILLER_113_208
*1383 FILLER_113_212
*1384 FILLER_113_215
*1385 FILLER_113_279
*1386 FILLER_113_283
*1387 FILLER_113_286
*1388 FILLER_113_350
*1389 FILLER_113_354
*1390 FILLER_113_357
*1391 FILLER_113_421
*1392 FILLER_113_425
*1393 FILLER_113_428
*1394 FILLER_113_492
*1395 FILLER_113_496
*1396 FILLER_113_499
*1397 FILLER_113_563
*1398 FILLER_113_567
*1399 FILLER_113_570
*1400 FILLER_113_634
*1401 FILLER_113_638
*1402 FILLER_113_641
*1403 FILLER_113_66
*1404 FILLER_113_70
*1405 FILLER_113_705
*1406 FILLER_113_709
*1407 FILLER_113_712
*1408 FILLER_113_73
*1409 FILLER_113_776
*1410 FILLER_113_780
*1411 FILLER_113_783
*1412 FILLER_113_847
*1413 FILLER_113_851
*1414 FILLER_113_854
*1415 FILLER_113_918
*1416 FILLER_113_922
*1417 FILLER_113_925
*1418 FILLER_113_989
*1419 FILLER_113_993
*1420 FILLER_113_996
*1421 FILLER_114_101
*1422 FILLER_114_1024
*1423 FILLER_114_1028
*1424 FILLER_114_1031
*1425 FILLER_114_1039
*1426 FILLER_114_1043
*1427 FILLER_114_105
*1428 FILLER_114_108
*1429 FILLER_114_172
*1430 FILLER_114_176
*1431 FILLER_114_179
*1432 FILLER_114_2
*1433 FILLER_114_23
*1434 FILLER_114_243
*1435 FILLER_114_247
*1436 FILLER_114_250
*1437 FILLER_114_31
*1438 FILLER_114_314
*1439 FILLER_114_318
*1440 FILLER_114_321
*1441 FILLER_114_37
*1442 FILLER_114_385
*1443 FILLER_114_389
*1444 FILLER_114_392
*1445 FILLER_114_456
*1446 FILLER_114_460
*1447 FILLER_114_463
*1448 FILLER_114_527
*1449 FILLER_114_531
*1450 FILLER_114_534
*1451 FILLER_114_598
*1452 FILLER_114_602
*1453 FILLER_114_605
*1454 FILLER_114_669
*1455 FILLER_114_673
*1456 FILLER_114_676
*1457 FILLER_114_7
*1458 FILLER_114_740
*1459 FILLER_114_744
*1460 FILLER_114_747
*1461 FILLER_114_811
*1462 FILLER_114_815
*1463 FILLER_114_818
*1464 FILLER_114_882
*1465 FILLER_114_886
*1466 FILLER_114_889
*1467 FILLER_114_953
*1468 FILLER_114_957
*1469 FILLER_114_960
*1470 FILLER_115_1028
*1471 FILLER_115_1044
*1472 FILLER_115_137
*1473 FILLER_115_141
*1474 FILLER_115_144
*1475 FILLER_115_2
*1476 FILLER_115_208
*1477 FILLER_115_212
*1478 FILLER_115_215
*1479 FILLER_115_279
*1480 FILLER_115_283
*1481 FILLER_115_286
*1482 FILLER_115_350
*1483 FILLER_115_354
*1484 FILLER_115_357
*1485 FILLER_115_421
*1486 FILLER_115_425
*1487 FILLER_115_428
*1488 FILLER_115_492
*1489 FILLER_115_496
*1490 FILLER_115_499
*1491 FILLER_115_563
*1492 FILLER_115_567
*1493 FILLER_115_570
*1494 FILLER_115_634
*1495 FILLER_115_638
*1496 FILLER_115_641
*1497 FILLER_115_66
*1498 FILLER_115_70
*1499 FILLER_115_705
*1500 FILLER_115_709
*1501 FILLER_115_712
*1502 FILLER_115_73
*1503 FILLER_115_776
*1504 FILLER_115_780
*1505 FILLER_115_783
*1506 FILLER_115_847
*1507 FILLER_115_851
*1508 FILLER_115_854
*1509 FILLER_115_918
*1510 FILLER_115_922
*1511 FILLER_115_925
*1512 FILLER_115_989
*1513 FILLER_115_993
*1514 FILLER_115_996
*1515 FILLER_116_101
*1516 FILLER_116_1024
*1517 FILLER_116_1028
*1518 FILLER_116_1031
*1519 FILLER_116_1039
*1520 FILLER_116_1043
*1521 FILLER_116_105
*1522 FILLER_116_108
*1523 FILLER_116_172
*1524 FILLER_116_176
*1525 FILLER_116_179
*1526 FILLER_116_2
*1527 FILLER_116_243
*1528 FILLER_116_247
*1529 FILLER_116_250
*1530 FILLER_116_314
*1531 FILLER_116_318
*1532 FILLER_116_321
*1533 FILLER_116_34
*1534 FILLER_116_37
*1535 FILLER_116_385
*1536 FILLER_116_389
*1537 FILLER_116_392
*1538 FILLER_116_456
*1539 FILLER_116_460
*1540 FILLER_116_463
*1541 FILLER_116_527
*1542 FILLER_116_531
*1543 FILLER_116_534
*1544 FILLER_116_598
*1545 FILLER_116_602
*1546 FILLER_116_605
*1547 FILLER_116_669
*1548 FILLER_116_673
*1549 FILLER_116_676
*1550 FILLER_116_740
*1551 FILLER_116_744
*1552 FILLER_116_747
*1553 FILLER_116_811
*1554 FILLER_116_815
*1555 FILLER_116_818
*1556 FILLER_116_882
*1557 FILLER_116_886
*1558 FILLER_116_889
*1559 FILLER_116_953
*1560 FILLER_116_957
*1561 FILLER_116_960
*1562 FILLER_117_1028
*1563 FILLER_117_1044
*1564 FILLER_117_137
*1565 FILLER_117_141
*1566 FILLER_117_144
*1567 FILLER_117_2
*1568 FILLER_117_208
*1569 FILLER_117_212
*1570 FILLER_117_215
*1571 FILLER_117_279
*1572 FILLER_117_283
*1573 FILLER_117_286
*1574 FILLER_117_350
*1575 FILLER_117_354
*1576 FILLER_117_357
*1577 FILLER_117_421
*1578 FILLER_117_425
*1579 FILLER_117_428
*1580 FILLER_117_492
*1581 FILLER_117_496
*1582 FILLER_117_499
*1583 FILLER_117_563
*1584 FILLER_117_567
*1585 FILLER_117_570
*1586 FILLER_117_634
*1587 FILLER_117_638
*1588 FILLER_117_641
*1589 FILLER_117_7
*1590 FILLER_117_705
*1591 FILLER_117_709
*1592 FILLER_117_712
*1593 FILLER_117_73
*1594 FILLER_117_776
*1595 FILLER_117_780
*1596 FILLER_117_783
*1597 FILLER_117_847
*1598 FILLER_117_851
*1599 FILLER_117_854
*1600 FILLER_117_918
*1601 FILLER_117_922