*SPEF "ieee 1481-1999"
*DESIGN "user_project_wrapper"
*DATE "11:11:11 Fri 11 11, 1111"
*VENDOR "OpenRCX"
*PROGRAM "Parallel Extraction"
*VERSION "1.0"
*DESIGN_FLOW "NAME_SCOPE LOCAL" "PIN_CAP NONE"
*DIVIDER /
*DELIMITER :
*BUS_DELIMITER []
*T_UNIT 1 NS
*C_UNIT 1 PF
*R_UNIT 1 OHM
*L_UNIT 1 HENRY

*NAME_MAP
*1 io_in[0]
*2 io_in[10]
*3 io_in[11]
*4 io_in[12]
*5 io_in[13]
*6 io_in[14]
*7 io_in[15]
*8 io_in[16]
*9 io_in[17]
*10 io_in[18]
*11 io_in[19]
*12 io_in[1]
*13 io_in[20]
*14 io_in[21]
*15 io_in[22]
*16 io_in[23]
*17 io_in[24]
*18 io_in[25]
*19 io_in[26]
*20 io_in[27]
*21 io_in[28]
*22 io_in[29]
*23 io_in[2]
*24 io_in[30]
*25 io_in[31]
*26 io_in[32]
*27 io_in[33]
*28 io_in[34]
*29 io_in[35]
*30 io_in[36]
*31 io_in[37]
*32 io_in[3]
*33 io_in[4]
*34 io_in[5]
*35 io_in[6]
*36 io_in[7]
*37 io_in[8]
*38 io_in[9]
*39 io_oeb[0]
*40 io_oeb[10]
*41 io_oeb[11]
*42 io_oeb[12]
*43 io_oeb[13]
*44 io_oeb[14]
*45 io_oeb[15]
*46 io_oeb[16]
*47 io_oeb[17]
*48 io_oeb[18]
*49 io_oeb[19]
*50 io_oeb[1]
*51 io_oeb[20]
*52 io_oeb[21]
*53 io_oeb[22]
*54 io_oeb[23]
*55 io_oeb[24]
*56 io_oeb[25]
*57 io_oeb[26]
*58 io_oeb[27]
*59 io_oeb[28]
*60 io_oeb[29]
*61 io_oeb[2]
*62 io_oeb[30]
*63 io_oeb[31]
*64 io_oeb[32]
*65 io_oeb[33]
*66 io_oeb[34]
*67 io_oeb[35]
*68 io_oeb[36]
*69 io_oeb[37]
*70 io_oeb[3]
*71 io_oeb[4]
*72 io_oeb[5]
*73 io_oeb[6]
*74 io_oeb[7]
*75 io_oeb[8]
*76 io_oeb[9]
*77 io_out[0]
*78 io_out[10]
*79 io_out[11]
*80 io_out[12]
*81 io_out[13]
*82 io_out[14]
*83 io_out[15]
*84 io_out[16]
*85 io_out[17]
*86 io_out[18]
*87 io_out[19]
*88 io_out[1]
*89 io_out[20]
*90 io_out[21]
*91 io_out[22]
*92 io_out[23]
*93 io_out[24]
*94 io_out[25]
*95 io_out[26]
*96 io_out[27]
*97 io_out[28]
*98 io_out[29]
*99 io_out[2]
*100 io_out[30]
*101 io_out[31]
*102 io_out[32]
*103 io_out[33]
*104 io_out[34]
*105 io_out[35]
*106 io_out[36]
*107 io_out[37]
*108 io_out[3]
*109 io_out[4]
*110 io_out[5]
*111 io_out[6]
*112 io_out[7]
*113 io_out[8]
*114 io_out[9]
*115 la_data_in[0]
*116 la_data_in[10]
*117 la_data_in[11]
*118 la_data_in[12]
*119 la_data_in[13]
*120 la_data_in[14]
*121 la_data_in[15]
*122 la_data_in[16]
*123 la_data_in[17]
*124 la_data_in[18]
*125 la_data_in[19]
*126 la_data_in[1]
*127 la_data_in[20]
*128 la_data_in[21]
*129 la_data_in[22]
*130 la_data_in[23]
*131 la_data_in[24]
*132 la_data_in[25]
*133 la_data_in[26]
*134 la_data_in[27]
*135 la_data_in[28]
*136 la_data_in[29]
*137 la_data_in[2]
*138 la_data_in[30]
*139 la_data_in[31]
*140 la_data_in[32]
*141 la_data_in[33]
*142 la_data_in[34]
*143 la_data_in[35]
*144 la_data_in[36]
*145 la_data_in[37]
*146 la_data_in[38]
*147 la_data_in[39]
*148 la_data_in[3]
*149 la_data_in[40]
*150 la_data_in[41]
*151 la_data_in[42]
*152 la_data_in[43]
*153 la_data_in[44]
*154 la_data_in[45]
*155 la_data_in[46]
*156 la_data_in[47]
*157 la_data_in[48]
*158 la_data_in[49]
*159 la_data_in[4]
*160 la_data_in[50]
*161 la_data_in[51]
*162 la_data_in[52]
*163 la_data_in[53]
*164 la_data_in[54]
*165 la_data_in[55]
*166 la_data_in[56]
*167 la_data_in[57]
*168 la_data_in[58]
*169 la_data_in[59]
*170 la_data_in[5]
*171 la_data_in[60]
*172 la_data_in[61]
*173 la_data_in[62]
*174 la_data_in[63]
*175 la_data_in[6]
*176 la_data_in[7]
*177 la_data_in[8]
*178 la_data_in[9]
*179 la_data_out[0]
*180 la_data_out[10]
*181 la_data_out[11]
*182 la_data_out[12]
*183 la_data_out[13]
*184 la_data_out[14]
*185 la_data_out[15]
*186 la_data_out[16]
*187 la_data_out[17]
*188 la_data_out[18]
*189 la_data_out[19]
*190 la_data_out[1]
*191 la_data_out[20]
*192 la_data_out[21]
*193 la_data_out[22]
*194 la_data_out[23]
*195 la_data_out[24]
*196 la_data_out[25]
*197 la_data_out[26]
*198 la_data_out[27]
*199 la_data_out[28]
*200 la_data_out[29]
*201 la_data_out[2]
*202 la_data_out[30]
*203 la_data_out[31]
*204 la_data_out[32]
*205 la_data_out[33]
*206 la_data_out[34]
*207 la_data_out[35]
*208 la_data_out[36]
*209 la_data_out[37]
*210 la_data_out[38]
*211 la_data_out[39]
*212 la_data_out[3]
*213 la_data_out[40]
*214 la_data_out[41]
*215 la_data_out[42]
*216 la_data_out[43]
*217 la_data_out[44]
*218 la_data_out[45]
*219 la_data_out[46]
*220 la_data_out[47]
*221 la_data_out[48]
*222 la_data_out[49]
*223 la_data_out[4]
*224 la_data_out[50]
*225 la_data_out[51]
*226 la_data_out[52]
*227 la_data_out[53]
*228 la_data_out[54]
*229 la_data_out[55]
*230 la_data_out[56]
*231 la_data_out[57]
*232 la_data_out[58]
*233 la_data_out[59]
*234 la_data_out[5]
*235 la_data_out[60]
*236 la_data_out[61]
*237 la_data_out[62]
*238 la_data_out[63]
*239 la_data_out[6]
*240 la_data_out[7]
*241 la_data_out[8]
*242 la_data_out[9]
*243 la_oenb[0]
*244 la_oenb[10]
*245 la_oenb[11]
*246 la_oenb[12]
*247 la_oenb[13]
*248 la_oenb[14]
*249 la_oenb[15]
*250 la_oenb[16]
*251 la_oenb[17]
*252 la_oenb[18]
*253 la_oenb[19]
*254 la_oenb[1]
*255 la_oenb[20]
*256 la_oenb[21]
*257 la_oenb[22]
*258 la_oenb[23]
*259 la_oenb[24]
*260 la_oenb[25]
*261 la_oenb[26]
*262 la_oenb[27]
*263 la_oenb[28]
*264 la_oenb[29]
*265 la_oenb[2]
*266 la_oenb[30]
*267 la_oenb[31]
*268 la_oenb[32]
*269 la_oenb[33]
*270 la_oenb[34]
*271 la_oenb[35]
*272 la_oenb[36]
*273 la_oenb[37]
*274 la_oenb[38]
*275 la_oenb[39]
*276 la_oenb[3]
*277 la_oenb[40]
*278 la_oenb[41]
*279 la_oenb[42]
*280 la_oenb[43]
*281 la_oenb[44]
*282 la_oenb[45]
*283 la_oenb[46]
*284 la_oenb[47]
*285 la_oenb[48]
*286 la_oenb[49]
*287 la_oenb[4]
*288 la_oenb[50]
*289 la_oenb[51]
*290 la_oenb[52]
*291 la_oenb[53]
*292 la_oenb[54]
*293 la_oenb[55]
*294 la_oenb[56]
*295 la_oenb[57]
*296 la_oenb[58]
*297 la_oenb[59]
*298 la_oenb[5]
*299 la_oenb[60]
*300 la_oenb[61]
*301 la_oenb[62]
*302 la_oenb[63]
*303 la_oenb[6]
*304 la_oenb[7]
*305 la_oenb[8]
*306 la_oenb[9]
*307 user_clock2
*308 user_irq[0]
*309 user_irq[1]
*310 user_irq[2]
*313 wb_clk_i
*314 wb_rst_i
*315 wbs_ack_o
*316 wbs_adr_i[0]
*317 wbs_adr_i[10]
*318 wbs_adr_i[11]
*319 wbs_adr_i[12]
*320 wbs_adr_i[13]
*321 wbs_adr_i[14]
*322 wbs_adr_i[15]
*323 wbs_adr_i[16]
*324 wbs_adr_i[17]
*325 wbs_adr_i[18]
*326 wbs_adr_i[19]
*327 wbs_adr_i[1]
*328 wbs_adr_i[20]
*329 wbs_adr_i[21]
*330 wbs_adr_i[22]
*331 wbs_adr_i[23]
*332 wbs_adr_i[24]
*333 wbs_adr_i[25]
*334 wbs_adr_i[26]
*335 wbs_adr_i[27]
*336 wbs_adr_i[28]
*337 wbs_adr_i[29]
*338 wbs_adr_i[2]
*339 wbs_adr_i[30]
*340 wbs_adr_i[31]
*341 wbs_adr_i[3]
*342 wbs_adr_i[4]
*343 wbs_adr_i[5]
*344 wbs_adr_i[6]
*345 wbs_adr_i[7]
*346 wbs_adr_i[8]
*347 wbs_adr_i[9]
*348 wbs_cyc_i
*349 wbs_dat_i[0]
*350 wbs_dat_i[10]
*351 wbs_dat_i[11]
*352 wbs_dat_i[12]
*353 wbs_dat_i[13]
*354 wbs_dat_i[14]
*355 wbs_dat_i[15]
*356 wbs_dat_i[16]
*357 wbs_dat_i[17]
*358 wbs_dat_i[18]
*359 wbs_dat_i[19]
*360 wbs_dat_i[1]
*361 wbs_dat_i[20]
*362 wbs_dat_i[21]
*363 wbs_dat_i[22]
*364 wbs_dat_i[23]
*365 wbs_dat_i[24]
*366 wbs_dat_i[25]
*367 wbs_dat_i[26]
*368 wbs_dat_i[27]
*369 wbs_dat_i[28]
*370 wbs_dat_i[29]
*371 wbs_dat_i[2]
*372 wbs_dat_i[30]
*373 wbs_dat_i[31]
*374 wbs_dat_i[3]
*375 wbs_dat_i[4]
*376 wbs_dat_i[5]
*377 wbs_dat_i[6]
*378 wbs_dat_i[7]
*379 wbs_dat_i[8]
*380 wbs_dat_i[9]
*381 wbs_dat_o[0]
*382 wbs_dat_o[10]
*383 wbs_dat_o[11]
*384 wbs_dat_o[12]
*385 wbs_dat_o[13]
*386 wbs_dat_o[14]
*387 wbs_dat_o[15]
*388 wbs_dat_o[16]
*389 wbs_dat_o[17]
*390 wbs_dat_o[18]
*391 wbs_dat_o[19]
*392 wbs_dat_o[1]
*393 wbs_dat_o[20]
*394 wbs_dat_o[21]
*395 wbs_dat_o[22]
*396 wbs_dat_o[23]
*397 wbs_dat_o[24]
*398 wbs_dat_o[25]
*399 wbs_dat_o[26]
*400 wbs_dat_o[27]
*401 wbs_dat_o[28]
*402 wbs_dat_o[29]
*403 wbs_dat_o[2]
*404 wbs_dat_o[30]
*405 wbs_dat_o[31]
*406 wbs_dat_o[3]
*407 wbs_dat_o[4]
*408 wbs_dat_o[5]
*409 wbs_dat_o[6]
*410 wbs_dat_o[7]
*411 wbs_dat_o[8]
*412 wbs_dat_o[9]
*413 wbs_sel_i[0]
*414 wbs_sel_i[1]
*415 wbs_sel_i[2]
*416 wbs_sel_i[3]
*417 wbs_stb_i
*418 wbs_we_i
*419 mprj

*PORTS
io_in[0] I
io_in[10] I
io_in[11] I
io_in[12] I
io_in[13] I
io_in[14] I
io_in[15] I
io_in[16] I
io_in[17] I
io_in[18] I
io_in[19] I
io_in[1] I
io_in[20] I
io_in[21] I
io_in[22] I
io_in[23] I
io_in[24] I
io_in[25] I
io_in[26] I
io_in[27] I
io_in[28] I
io_in[29] I
io_in[2] I
io_in[30] I
io_in[31] I
io_in[32] I
io_in[33] I
io_in[34] I
io_in[35] I
io_in[36] I
io_in[37] I
io_in[3] I
io_in[4] I
io_in[5] I
io_in[6] I
io_in[7] I
io_in[8] I
io_in[9] I
io_oeb[0] O
io_oeb[10] O
io_oeb[11] O
io_oeb[12] O
io_oeb[13] O
io_oeb[14] O
io_oeb[15] O
io_oeb[16] O
io_oeb[17] O
io_oeb[18] O
io_oeb[19] O
io_oeb[1] O
io_oeb[20] O
io_oeb[21] O
io_oeb[22] O
io_oeb[23] O
io_oeb[24] O
io_oeb[25] O
io_oeb[26] O
io_oeb[27] O
io_oeb[28] O
io_oeb[29] O
io_oeb[2] O
io_oeb[30] O
io_oeb[31] O
io_oeb[32] O
io_oeb[33] O
io_oeb[34] O
io_oeb[35] O
io_oeb[36] O
io_oeb[37] O
io_oeb[3] O
io_oeb[4] O
io_oeb[5] O
io_oeb[6] O
io_oeb[7] O
io_oeb[8] O
io_oeb[9] O
io_out[0] O
io_out[10] O
io_out[11] O
io_out[12] O
io_out[13] O
io_out[14] O
io_out[15] O
io_out[16] O
io_out[17] O
io_out[18] O
io_out[19] O
io_out[1] O
io_out[20] O
io_out[21] O
io_out[22] O
io_out[23] O
io_out[24] O
io_out[25] O
io_out[26] O
io_out[27] O
io_out[28] O
io_out[29] O
io_out[2] O
io_out[30] O
io_out[31] O
io_out[32] O
io_out[33] O
io_out[34] O
io_out[35] O
io_out[36] O
io_out[37] O
io_out[3] O
io_out[4] O
io_out[5] O
io_out[6] O
io_out[7] O
io_out[8] O
io_out[9] O
la_data_in[0] I
la_data_in[10] I
la_data_in[11] I
la_data_in[12] I
la_data_in[13] I
la_data_in[14] I
la_data_in[15] I
la_data_in[16] I
la_data_in[17] I
la_data_in[18] I
la_data_in[19] I
la_data_in[1] I
la_data_in[20] I
la_data_in[21] I
la_data_in[22] I
la_data_in[23] I
la_data_in[24] I
la_data_in[25] I
la_data_in[26] I
la_data_in[27] I
la_data_in[28] I
la_data_in[29] I
la_data_in[2] I
la_data_in[30] I
la_data_in[31] I
la_data_in[32] I
la_data_in[33] I
la_data_in[34] I
la_data_in[35] I
la_data_in[36] I
la_data_in[37] I
la_data_in[38] I
la_data_in[39] I
la_data_in[3] I
la_data_in[40] I
la_data_in[41] I
la_data_in[42] I
la_data_in[43] I
la_data_in[44] I
la_data_in[45] I
la_data_in[46] I
la_data_in[47] I
la_data_in[48] I
la_data_in[49] I
la_data_in[4] I
la_data_in[50] I
la_data_in[51] I
la_data_in[52] I
la_data_in[53] I
la_data_in[54] I
la_data_in[55] I
la_data_in[56] I
la_data_in[57] I
la_data_in[58] I
la_data_in[59] I
la_data_in[5] I
la_data_in[60] I
la_data_in[61] I
la_data_in[62] I
la_data_in[63] I
la_data_in[6] I
la_data_in[7] I
la_data_in[8] I
la_data_in[9] I
la_data_out[0] O
la_data_out[10] O
la_data_out[11] O
la_data_out[12] O
la_data_out[13] O
la_data_out[14] O
la_data_out[15] O
la_data_out[16] O
la_data_out[17] O
la_data_out[18] O
la_data_out[19] O
la_data_out[1] O
la_data_out[20] O
la_data_out[21] O
la_data_out[22] O
la_data_out[23] O
la_data_out[24] O
la_data_out[25] O
la_data_out[26] O
la_data_out[27] O
la_data_out[28] O
la_data_out[29] O
la_data_out[2] O
la_data_out[30] O
la_data_out[31] O
la_data_out[32] O
la_data_out[33] O
la_data_out[34] O
la_data_out[35] O
la_data_out[36] O
la_data_out[37] O
la_data_out[38] O
la_data_out[39] O
la_data_out[3] O
la_data_out[40] O
la_data_out[41] O
la_data_out[42] O
la_data_out[43] O
la_data_out[44] O
la_data_out[45] O
la_data_out[46] O
la_data_out[47] O
la_data_out[48] O
la_data_out[49] O
la_data_out[4] O
la_data_out[50] O
la_data_out[51] O
la_data_out[52] O
la_data_out[53] O
la_data_out[54] O
la_data_out[55] O
la_data_out[56] O
la_data_out[57] O
la_data_out[58] O
la_data_out[59] O
la_data_out[5] O
la_data_out[60] O
la_data_out[61] O
la_data_out[62] O
la_data_out[63] O
la_data_out[6] O
la_data_out[7] O
la_data_out[8] O
la_data_out[9] O
la_oenb[0] I
la_oenb[10] I
la_oenb[11] I
la_oenb[12] I
la_oenb[13] I
la_oenb[14] I
la_oenb[15] I
la_oenb[16] I
la_oenb[17] I
la_oenb[18] I
la_oenb[19] I
la_oenb[1] I
la_oenb[20] I
la_oenb[21] I
la_oenb[22] I
la_oenb[23] I
la_oenb[24] I
la_oenb[25] I
la_oenb[26] I
la_oenb[27] I
la_oenb[28] I
la_oenb[29] I
la_oenb[2] I
la_oenb[30] I
la_oenb[31] I
la_oenb[32] I
la_oenb[33] I
la_oenb[34] I
la_oenb[35] I
la_oenb[36] I
la_oenb[37] I
la_oenb[38] I
la_oenb[39] I
la_oenb[3] I
la_oenb[40] I
la_oenb[41] I
la_oenb[42] I
la_oenb[43] I
la_oenb[44] I
la_oenb[45] I
la_oenb[46] I
la_oenb[47] I
la_oenb[48] I
la_oenb[49] I
la_oenb[4] I
la_oenb[50] I
la_oenb[51] I
la_oenb[52] I
la_oenb[53] I
la_oenb[54] I
la_oenb[55] I
la_oenb[56] I
la_oenb[57] I
la_oenb[58] I
la_oenb[59] I
la_oenb[5] I
la_oenb[60] I
la_oenb[61] I
la_oenb[62] I
la_oenb[63] I
la_oenb[6] I
la_oenb[7] I
la_oenb[8] I
la_oenb[9] I
user_clock2 I
user_irq[0] O
user_irq[1] O
user_irq[2] O
wb_clk_i I
wb_rst_i I
wbs_ack_o O
wbs_adr_i[0] I
wbs_adr_i[10] I
wbs_adr_i[11] I
wbs_adr_i[12] I
wbs_adr_i[13] I
wbs_adr_i[14] I
wbs_adr_i[15] I
wbs_adr_i[16] I
wbs_adr_i[17] I
wbs_adr_i[18] I
wbs_adr_i[19] I
wbs_adr_i[1] I
wbs_adr_i[20] I
wbs_adr_i[21] I
wbs_adr_i[22] I
wbs_adr_i[23] I
wbs_adr_i[24] I
wbs_adr_i[25] I
wbs_adr_i[26] I
wbs_adr_i[27] I
wbs_adr_i[28] I
wbs_adr_i[29] I
wbs_adr_i[2] I
wbs_adr_i[30] I
wbs_adr_i[31] I
wbs_adr_i[3] I
wbs_adr_i[4] I
wbs_adr_i[5] I
wbs_adr_i[6] I
wbs_adr_i[7] I
wbs_adr_i[8] I
wbs_adr_i[9] I
wbs_cyc_i I
wbs_dat_i[0] I
wbs_dat_i[10] I
wbs_dat_i[11] I
wbs_dat_i[12] I
wbs_dat_i[13] I
wbs_dat_i[14] I
wbs_dat_i[15] I
wbs_dat_i[16] I
wbs_dat_i[17] I
wbs_dat_i[18] I
wbs_dat_i[19] I
wbs_dat_i[1] I
wbs_dat_i[20] I
wbs_dat_i[21] I
wbs_dat_i[22] I
wbs_dat_i[23] I
wbs_dat_i[24] I
wbs_dat_i[25] I
wbs_dat_i[26] I
wbs_dat_i[27] I
wbs_dat_i[28] I
wbs_dat_i[29] I
wbs_dat_i[2] I
wbs_dat_i[30] I
wbs_dat_i[31] I
wbs_dat_i[3] I
wbs_dat_i[4] I
wbs_dat_i[5] I
wbs_dat_i[6] I
wbs_dat_i[7] I
wbs_dat_i[8] I
wbs_dat_i[9] I
wbs_dat_o[0] O
wbs_dat_o[10] O
wbs_dat_o[11] O
wbs_dat_o[12] O
wbs_dat_o[13] O
wbs_dat_o[14] O
wbs_dat_o[15] O
wbs_dat_o[16] O
wbs_dat_o[17] O
wbs_dat_o[18] O
wbs_dat_o[19] O
wbs_dat_o[1] O
wbs_dat_o[20] O
wbs_dat_o[21] O
wbs_dat_o[22] O
wbs_dat_o[23] O
wbs_dat_o[24] O
wbs_dat_o[25] O
wbs_dat_o[26] O
wbs_dat_o[27] O
wbs_dat_o[28] O
wbs_dat_o[29] O
wbs_dat_o[2] O
wbs_dat_o[30] O
wbs_dat_o[31] O
wbs_dat_o[3] O
wbs_dat_o[4] O
wbs_dat_o[5] O
wbs_dat_o[6] O
wbs_dat_o[7] O
wbs_dat_o[8] O
wbs_dat_o[9] O
wbs_sel_i[0] I
wbs_sel_i[1] I
wbs_sel_i[2] I
wbs_sel_i[3] I
wbs_stb_i I
wbs_we_i I

*D_NET *1 0.499721
*CONN
*P io_in[0] I
*I *419:io_in[0] I *D tiny_user_project
*CAP
1 io_in[0] 0.00493238
2 *419:io_in[0] 0.00151923
3 *1:14 0.0109902
4 *1:13 0.009471
5 *1:11 0.0766625
6 *1:10 0.0815949
7 *419:io_in[0] *419:io_in[27] 0
8 *419:io_in[0] *20:19 0.00227901
9 *1:11 *118:16 0
10 *1:11 *124:14 0
11 *1:11 *183:13 0
12 *1:11 *260:14 0
13 *1:14 *129:19 0.160844
14 *1:14 *212:13 0.142417
15 *1:14 *220:13 0.00901079
*RES
1 io_in[0] *1:10 47.475 
2 *1:10 *1:11 576.63 
3 *1:11 *1:13 4.5 
4 *1:13 *1:14 471.69 
5 *1:14 *419:io_in[0] 29.61 
*END

*D_NET *2 0.207307
*CONN
*P io_in[10] I
*I *419:io_in[10] I *D tiny_user_project
*CAP
1 io_in[10] 0.00473443
2 *419:io_in[10] 0.00101352
3 *2:12 0.0139522
4 *2:11 0.0129387
5 *2:9 0.069633
6 *2:7 0.0743674
7 *419:io_in[10] *182:14 0.000578251
8 *419:io_in[10] *220:12 7.12331e-05
9 *2:12 *306:19 0.0300187
10 *2:12 *378:13 0
*RES
1 io_in[10] *2:7 37.305 
2 *2:7 *2:9 542.88 
3 *2:9 *2:11 4.5 
4 *2:11 *2:12 130.41 
5 *2:12 *419:io_in[10] 22.14 
*END

*D_NET *3 0.334538
*CONN
*P io_in[11] I
*I *419:io_in[11] I *D tiny_user_project
*CAP
1 io_in[11] 0.000363112
2 *419:io_in[11] 0.0017538
3 *3:16 0.0187928
4 *3:15 0.017039
5 *3:13 0.0920964
6 *3:11 0.0924595
7 *419:io_in[11] *419:io_in[14] 6.67147e-05
8 *419:io_in[11] *103:12 0
9 *3:16 *43:13 0.103591
10 *3:16 *195:13 0.00837563
*RES
1 io_in[11] *3:11 3.195 
2 *3:11 *3:13 582.57 
3 *3:13 *3:15 4.5 
4 *3:15 *3:16 265.95 
5 *3:16 *419:io_in[11] 25.38 
*END

*D_NET *4 0.265876
*CONN
*P io_in[12] I
*I *419:io_in[12] I *D tiny_user_project
*CAP
1 io_in[12] 0.000167227
2 *419:io_in[12] 0.00251587
3 *4:16 0.028804
4 *4:15 0.0262882
5 *4:13 0.0752431
6 *4:11 0.0754103
7 *4:16 *70:13 0.0116411
8 *4:16 *122:19 0.037859
9 *4:16 *197:15 0.00794742
*RES
1 io_in[12] *4:11 2.115 
2 *4:11 *4:13 587.97 
3 *4:13 *4:15 4.5 
4 *4:15 *4:16 278.19 
5 *4:16 *419:io_in[12] 30.78 
*END

*D_NET *5 0.286261
*CONN
*P io_in[13] I
*I *419:io_in[13] I *D tiny_user_project
*CAP
1 io_in[13] 0.0755418
2 *419:io_in[13] 0.00295491
3 *5:8 0.0450679
4 *5:7 0.042113
5 *5:5 0.0755418
6 *419:io_in[13] *419:la_data_in[32] 0
7 *5:8 *120:19 0.0370556
8 *5:8 *223:14 0.00798581
*RES
1 io_in[13] *5:5 590.625 
2 *5:5 *5:7 4.5 
3 *5:7 *5:8 383.49 
4 *5:8 *419:io_in[13] 34.02 
*END

*D_NET *6 0.327059
*CONN
*P io_in[14] I
*I *419:io_in[14] I *D tiny_user_project
*CAP
1 io_in[14] 0.000264341
2 *419:io_in[14] 0.00344892
3 *6:16 0.0524876
4 *6:15 0.0490387
5 *6:13 0.0757975
6 *6:11 0.0760619
7 *419:io_in[14] *103:9 0.000154731
8 *6:16 *128:19 0.0338501
9 *6:16 *247:11 0.0358886
10 *419:io_in[11] *419:io_in[14] 6.67147e-05
*RES
1 io_in[14] *6:11 2.655 
2 *6:11 *6:13 593.19 
3 *6:13 *6:15 4.5 
4 *6:15 *6:16 459.09 
5 *6:16 *419:io_in[14] 38.25 
*END

*D_NET *7 0.275325
*CONN
*P io_in[15] I
*I *419:io_in[15] I *D tiny_user_project
*CAP
1 io_in[15] 0.0010289
2 *419:io_in[15] 0.00194725
3 *7:11 0.0477055
4 *7:10 0.0457583
5 *7:8 0.033906
6 *7:7 0.0349349
7 *419:io_in[15] *38:11 0.00110425
8 *419:io_in[15] *64:11 8.98093e-05
9 *419:io_in[15] *207:10 0.00021842
10 *7:8 *10:10 0.000221982
11 *7:8 *16:8 0.0405109
12 *7:8 *83:17 0.0397581
13 *7:8 *85:17 0.0211302
14 *7:8 *86:18 0.00701072
15 *7:11 *207:10 0
*RES
1 io_in[15] *7:7 12.465 
2 *7:7 *7:8 455.13 
3 *7:8 *7:10 4.5 
4 *7:10 *7:11 347.49 
5 *7:11 *419:io_in[15] 31.95 
*END

*D_NET *8 0.231948
*CONN
*P io_in[16] I
*I *419:io_in[16] I *D tiny_user_project
*CAP
1 io_in[16] 0.000224836
2 *419:io_in[16] 0.000894586
3 *8:19 0.015878
4 *8:18 0.0149834
5 *8:16 0.0392224
6 *8:15 0.0392224
7 *8:13 0.0495582
8 *8:11 0.049783
9 *419:io_in[16] *419:la_data_in[20] 0.00320886
10 *8:13 *227:89 0.0101452
11 *8:16 *419:io_in[36] 0
12 *8:19 *91:12 0.00770163
13 *8:19 *347:19 0.00112506
14 *8:19 *372:19 0
*RES
1 io_in[16] *8:11 2.475 
2 *8:11 *8:13 391.77 
3 *8:13 *8:15 4.5 
4 *8:15 *8:16 244.71 
5 *8:16 *8:18 4.5 
6 *8:18 *8:19 138.87 
7 *8:19 *419:io_in[16] 13.995 
*END

*D_NET *9 0.145304
*CONN
*P io_in[17] I
*I *419:io_in[17] I *D tiny_user_project
*CAP
1 io_in[17] 0.001352
2 *419:io_in[17] 0.000485844
3 *9:14 0.0183896
4 *9:13 0.0179038
5 *9:11 0.0487491
6 *9:10 0.0501011
7 *419:io_in[17] *419:la_data_in[10] 1.43193e-05
8 *9:10 *83:17 0.000254726
9 *9:14 *419:la_data_in[10] 0.0080532
10 *9:14 *231:17 0
11 *9:14 *384:14 0
*RES
1 io_in[17] *9:10 19.935 
2 *9:10 *9:11 370.71 
3 *9:11 *9:13 4.5 
4 *9:13 *9:14 146.07 
5 *9:14 *419:io_in[17] 11.385 
*END

*D_NET *10 0.125653
*CONN
*P io_in[18] I
*I *419:io_in[18] I *D tiny_user_project
*CAP
1 io_in[18] 0.00137713
2 *419:io_in[18] 8.33608e-05
3 *10:17 0.0176918
4 *10:16 0.0176084
5 *10:14 0.0136123
6 *10:13 0.0136123
7 *10:11 0.0300343
8 *10:10 0.0314115
9 *7:8 *10:10 0.000221982
*RES
1 io_in[18] *10:10 19.755 
2 *10:10 *10:11 230.85 
3 *10:11 *10:13 4.5 
4 *10:13 *10:14 105.93 
5 *10:14 *10:16 4.5 
6 *10:16 *10:17 128.07 
7 *10:17 *419:io_in[18] 9.63 
*END

*D_NET *11 0.205975
*CONN
*P io_in[19] I
*I *419:io_in[19] I *D tiny_user_project
*CAP
1 io_in[19] 0.000178873
2 *419:io_in[19] 0.00214874
3 *11:19 0.0581795
4 *11:18 0.0560308
5 *11:16 0.0101436
6 *11:15 0.0101436
7 *11:13 0.0106122
8 *11:11 0.0107911
9 *11:19 *67:12 0.0107193
10 *11:19 *117:11 0.0370275
*RES
1 io_in[19] *11:11 2.115 
2 *11:11 *11:13 81.27 
3 *11:13 *11:15 4.5 
4 *11:15 *11:16 78.39 
5 *11:16 *11:18 4.5 
6 *11:18 *11:19 494.73 
7 *11:19 *419:io_in[19] 18.135 
*END

*D_NET *12 0.380818
*CONN
*P io_in[1] I
*I *419:io_in[1] I *D tiny_user_project
*CAP
1 io_in[1] 0.000370905
2 *419:io_in[1] 0.00124051
3 *12:19 0.0323791
4 *12:18 0.0311386
5 *12:16 0.0686261
6 *12:15 0.0686261
7 *12:13 0.0113718
8 *12:11 0.0117427
9 *419:io_in[1] *332:31 0.000128083
10 *12:13 *238:19 0
11 *12:19 *50:13 0
12 *12:19 *75:16 0
13 *12:19 *139:16 0.0316476
14 *12:19 *163:12 0.0126323
15 *12:19 *179:11 0.0609308
16 *12:19 *223:11 0.0364516
17 *12:19 *256:18 0.0104125
18 *12:19 *278:18 0.00311926
*RES
1 io_in[1] *12:11 3.195 
2 *12:11 *12:13 86.67 
3 *12:13 *12:15 4.5 
4 *12:15 *12:16 525.33 
5 *12:16 *12:18 4.5 
6 *12:18 *12:19 473.13 
7 *12:19 *419:io_in[1] 29.88 
*END

*D_NET *13 0.130592
*CONN
*P io_in[20] I
*I *419:io_in[20] I *D tiny_user_project
*CAP
1 io_in[20] 0.00145152
2 *419:io_in[20] 7.94064e-05
3 *13:11 0.0469887
4 *13:10 0.0469093
5 *13:8 0.016617
6 *13:7 0.0180685
7 *13:11 *419:la_data_in[53] 0.000477137
*RES
1 io_in[20] *13:7 15.525 
2 *13:7 *13:8 128.97 
3 *13:8 *13:10 4.5 
4 *13:10 *13:11 354.87 
5 *13:11 *419:io_in[20] 9.63 
*END

*D_NET *14 0.313914
*CONN
*P io_in[21] I
*I *419:io_in[21] I *D tiny_user_project
*CAP
1 io_in[21] 0.00173254
2 *419:io_in[21] 0.000637938
3 *14:14 0.00669597
4 *14:13 0.00605804
5 *14:11 0.0761603
6 *14:10 0.0778929
7 *419:io_in[21] *419:la_data_in[36] 6.01071e-05
8 *14:10 *54:17 0.000962916
9 *14:14 *18:19 0.0407013
10 *14:14 *42:11 0.00733327
11 *14:14 *46:11 0.0337706
12 *14:14 *47:16 0.000568739
13 *14:14 *96:11 0.0573051
14 *14:14 *98:11 0
15 *14:14 *181:16 0.000189633
16 *14:14 *206:16 0.00190356
17 *14:14 *262:14 0.00194157
*RES
1 io_in[21] *14:10 25.335 
2 *14:10 *14:11 578.97 
3 *14:11 *14:13 4.5 
4 *14:13 *14:14 221.49 
5 *14:14 *419:io_in[21] 17.6165 
*END

*D_NET *15 0.198294
*CONN
*P io_in[22] I
*I *419:io_in[22] I *D tiny_user_project
*CAP
1 io_in[22] 0.00485079
2 *419:io_in[22] 0.000145204
3 *15:18 0.00487705
4 *15:12 0.0540485
5 *15:11 0.0493166
6 *15:9 0.0376566
7 *15:7 0.0425074
8 *419:io_in[22] *419:la_oenb[2] 2.21163e-05
9 *15:9 *93:14 0
10 *15:18 *419:la_oenb[2] 0
11 *15:18 *124:47 0.0030548
12 *15:18 *187:14 0.00162111
13 *15:18 *227:86 0.000100669
14 *15:18 *282:29 9.29597e-05
*RES
1 io_in[22] *15:7 37.305 
2 *15:7 *15:9 290.34 
3 *15:9 *15:11 4.5 
4 *15:11 *15:12 383.85 
5 *15:12 *15:18 48.06 
6 *15:18 *419:io_in[22] 14.31 
*END

*D_NET *16 0.398118
*CONN
*P io_in[23] I
*I *419:io_in[23] I *D tiny_user_project
*CAP
1 io_in[23] 0.00105188
2 *419:io_in[23] 0.00120592
3 *16:11 0.0491447
4 *16:10 0.0479387
5 *16:8 0.0274037
6 *16:7 0.0284556
7 *16:8 *54:17 0.192551
8 *16:8 *86:18 0.000239735
9 *16:11 io_out[18] 1.47961e-05
10 *16:11 *91:12 0.00960118
11 *7:8 *16:8 0.0405109
*RES
1 io_in[23] *16:7 12.645 
2 *16:7 *16:8 497.07 
3 *16:8 *16:10 4.5 
4 *16:10 *16:11 384.93 
5 *16:11 *419:io_in[23] 13.095 
*END

*D_NET *17 0.425609
*CONN
*P io_in[24] I
*I *419:io_in[24] I *D tiny_user_project
*CAP
1 io_in[24] 0.000201168
2 *419:io_in[24] 0.000326098
3 *17:19 0.00304651
4 *17:18 0.00272041
5 *17:16 0.0750336
6 *17:15 0.0750336
7 *17:13 0.0491545
8 *17:11 0.0493556
9 *419:io_in[24] *419:wbs_dat_i[2] 1.13744e-05
10 *17:16 *337:13 0
11 *17:19 *58:11 0.0958667
12 *17:19 *85:11 0.0575501
13 *17:19 *95:11 0.0173097
*RES
1 io_in[24] *17:11 1.935 
2 *17:11 *17:13 311.31 
3 *17:13 *17:15 4.5 
4 *17:15 *17:16 570.69 
5 *17:16 *17:18 4.5 
6 *17:18 *17:19 243.63 
7 *17:19 *419:io_in[24] 15.4565 
*END

*D_NET *18 0.290458
*CONN
*P io_in[25] I
*I *419:io_in[25] I *D tiny_user_project
*CAP
1 io_in[25] 0.000125876
2 *419:io_in[25] 0.000721162
3 *18:19 0.00704518
4 *18:18 0.00632402
5 *18:16 0.0664395
6 *18:15 0.0664395
7 *18:13 0.0414258
8 *18:11 0.0415516
9 *18:19 *419:la_oenb[36] 0.00132596
10 *18:19 *47:16 0.0008901
11 *18:19 *88:16 0.000408809
12 *18:19 *96:11 0.00828331
13 *18:19 *181:16 0.000785686
14 *18:19 *383:11 0.00798986
15 *14:14 *18:19 0.0407013
*RES
1 io_in[25] *18:11 1.395 
2 *18:11 *18:13 262.71 
3 *18:13 *18:15 4.5 
4 *18:15 *18:16 505.53 
5 *18:16 *18:18 4.5 
6 *18:18 *18:19 149.67 
7 *18:19 *419:io_in[25] 17.7965 
*END

*D_NET *19 0.170741
*CONN
*P io_in[26] I
*I *419:io_in[26] I *D tiny_user_project
*CAP
1 io_in[26] 0.00192467
2 *419:io_in[26] 0.000345546
3 *19:11 0.0489796
4 *19:10 0.0486341
5 *19:8 0.0344521
6 *19:7 0.0363768
7 *419:io_in[26] *419:wbs_stb_i 2.85162e-05
*RES
1 io_in[26] *19:7 18.765 
2 *19:7 *19:8 264.87 
3 *19:8 *19:10 4.5 
4 *19:10 *19:11 370.71 
5 *19:11 *419:io_in[26] 11.88 
*END

*D_NET *20 0.161464
*CONN
*P io_in[27] I
*I *419:io_in[27] I *D tiny_user_project
*CAP
1 io_in[27] 0.00035683
2 *419:io_in[27] 0.000150089
3 *20:19 0.0253953
4 *20:18 0.0252452
5 *20:16 0.0294499
6 *20:15 0.0294499
7 *20:13 0.0243905
8 *20:11 0.0247473
9 *419:io_in[0] *419:io_in[27] 0
10 *419:io_in[0] *20:19 0.00227901
*RES
1 io_in[27] *20:11 3.015 
2 *20:11 *20:13 189.81 
3 *20:13 *20:15 4.5 
4 *20:15 *20:16 224.19 
5 *20:16 *20:18 4.5 
6 *20:18 *20:19 195.21 
7 *20:19 *419:io_in[27] 10.17 
*END

*D_NET *21 0.138063
*CONN
*P io_in[28] I
*I *419:io_in[28] I *D tiny_user_project
*CAP
1 io_in[28] 0.000249598
2 *419:io_in[28] 0
3 *21:24 0.00532591
4 *21:16 0.0240052
5 *21:15 0.0186793
6 *21:13 0.0447766
7 *21:11 0.0450262
8 *21:16 *137:11 0
9 *21:16 *265:11 0
10 *21:24 *419:wbs_dat_i[10] 0
*RES
1 io_in[28] *21:11 2.475 
2 *21:11 *21:13 349.11 
3 *21:13 *21:15 4.5 
4 *21:15 *21:16 137.79 
5 *21:16 *21:24 46.62 
6 *21:24 *419:io_in[28] 4.5 
*END

*D_NET *22 0.129642
*CONN
*P io_in[29] I
*I *419:io_in[29] I *D tiny_user_project
*CAP
1 io_in[29] 0.00309092
2 *419:io_in[29] 0.000291288
3 *22:19 0.0476018
4 *22:18 0.0473105
5 *22:16 0.013386
6 *22:15 0.0164769
7 *419:io_in[29] *419:la_oenb[28] 0.000154731
8 *22:19 *419:la_oenb[28] 0.00133002
*RES
1 io_in[29] *22:15 28.845 
2 *22:15 *22:16 102.69 
3 *22:16 *22:18 4.5 
4 *22:18 *22:19 362.61 
5 *22:19 *419:io_in[29] 11.79 
*END

*D_NET *23 0.481265
*CONN
*P io_in[2] I
*I *419:io_in[2] I *D tiny_user_project
*CAP
1 io_in[2] 0.000445006
2 *419:io_in[2] 0.000535793
3 *23:11 0.0271107
4 *23:10 0.0265749
5 *23:8 0.00613575
6 *23:7 0.00658076
7 *419:io_in[2] *145:16 0.000762423
8 *419:io_in[2] *256:15 6.45103e-05
9 *419:io_in[2] *289:14 0.0017405
10 *23:8 *32:8 0.150507
11 *23:8 *39:12 0.00138345
12 *23:8 *42:14 0.0854067
13 *23:8 *77:18 0.027087
14 *23:8 *99:14 0.00755167
15 *23:11 *32:11 0
16 *23:11 *112:56 0.139379
*RES
1 io_in[2] *23:7 7.965 
2 *23:7 *23:8 448.11 
3 *23:8 *23:10 4.5 
4 *23:10 *23:11 371.43 
5 *23:11 *419:io_in[2] 16.335 
*END

*D_NET *24 0.315806
*CONN
*P io_in[30] I
*I *419:io_in[30] I *D tiny_user_project
*CAP
1 io_in[30] 0.000113196
2 *419:io_in[30] 0.00218638
3 *24:19 0.00441192
4 *24:18 0.00222554
5 *24:16 0.0231255
6 *24:15 0.0231255
7 *24:13 0.0336715
8 *24:11 0.0337847
9 *419:io_in[30] *79:10 2.33751e-05
10 *419:io_in[30] *104:14 1.0415e-05
11 *419:io_in[30] *253:13 0
12 *24:19 *52:11 0.102165
13 *24:19 *101:11 0.0779872
14 *24:19 *188:19 0.00364287
15 *24:19 *240:19 0.00933375
*RES
1 io_in[30] *24:11 1.395 
2 *24:11 *24:13 260.01 
3 *24:13 *24:15 4.5 
4 *24:15 *24:16 173.79 
5 *24:16 *24:18 4.5 
6 *24:18 *24:19 258.93 
7 *24:19 *419:io_in[30] 26.7965 
*END

*D_NET *25 0.107542
*CONN
*P io_in[31] I
*I *419:io_in[31] I *D tiny_user_project
*CAP
1 io_in[31] 0.00418973
2 *419:io_in[31] 0.000150089
3 *25:11 0.0457029
4 *25:10 0.0497425
5 *419:io_in[31] *275:25 0
6 *25:11 *275:25 0.00775681
*RES
1 io_in[31] *25:10 40.995 
2 *25:10 *25:11 361.35 
3 *25:11 *419:io_in[31] 10.17 
*END

*D_NET *26 0.211626
*CONN
*P io_in[32] I
*I *419:io_in[32] I *D tiny_user_project
*CAP
1 io_in[32] 0.000323383
2 *419:io_in[32] 0.00195789
3 *26:19 0.0369094
4 *26:18 0.0397206
5 *26:13 0.0224234
6 *26:11 0.0179777
7 *26:18 wbs_dat_o[9] 0
8 *26:19 *93:11 0.0443311
9 *26:19 *101:11 0.000200136
10 *26:19 *114:11 0.0477823
11 *26:19 *310:16 0
12 *26:19 *377:16 0
*RES
1 io_in[32] *26:11 3.015 
2 *26:11 *26:13 135.81 
3 *26:13 *26:18 44.37 
4 *26:18 *26:19 423.45 
5 *26:19 *419:io_in[32] 25.5365 
*END

*D_NET *27 0.120295
*CONN
*P io_in[33] I
*I *419:io_in[33] I *D tiny_user_project
*CAP
1 io_in[33] 0.00321133
2 *419:io_in[33] 0.0001287
3 *27:19 0.0483708
4 *27:18 0.0482421
5 *27:16 0.00856563
6 *27:15 0.011777
7 *27:16 wbs_ack_o 0
*RES
1 io_in[33] *27:15 29.385 
2 *27:15 *27:16 65.07 
3 *27:16 *27:18 4.5 
4 *27:18 *27:19 362.61 
5 *27:19 *419:io_in[33] 9.99 
*END

*D_NET *28 0.278947
*CONN
*P io_in[34] I
*I *419:io_in[34] I *D tiny_user_project
*CAP
1 io_in[34] 0.00382343
2 *419:io_in[34] 0.000193783
3 *28:19 0.0303363
4 *28:18 0.0301425
5 *28:16 0.0384446
6 *28:15 0.042268
7 *419:io_in[34] *419:la_data_in[27] 1.41827e-05
8 *28:16 *348:9 0
9 *28:16 *417:13 0
10 *28:19 *419:la_data_in[27] 0.00878808
11 *28:19 *60:21 0.124936
*RES
1 io_in[34] *28:15 34.245 
2 *28:15 *28:16 294.57 
3 *28:16 *28:18 4.5 
4 *28:18 *28:19 357.21 
5 *28:19 *419:io_in[34] 9.99 
*END

*D_NET *29 0.394226
*CONN
*P io_in[35] I
*I *419:io_in[35] I *D tiny_user_project
*CAP
1 io_in[35] 0.000113196
2 *419:io_in[35] 0.000993378
3 *29:19 0.0187424
4 *29:18 0.0177491
5 *29:16 0.0529048
6 *29:15 0.0529048
7 *29:13 0.0137117
8 *29:11 0.0138249
9 *419:io_in[35] *419:io_in[7] 0.000615774
10 *29:16 *377:13 0
11 *29:19 *50:13 0.050939
12 *29:19 *60:15 0.029411
13 *29:19 *163:12 0.00762612
14 *29:19 *314:16 0.121742
15 *29:19 *332:31 0.00576303
16 *29:19 *368:14 0.0066274
17 *29:19 *384:15 0.00055753
*RES
1 io_in[35] *29:11 1.395 
2 *29:11 *29:13 103.41 
3 *29:13 *29:15 4.5 
4 *29:15 *29:16 402.75 
5 *29:16 *29:18 4.5 
6 *29:18 *29:19 452.61 
7 *29:19 *419:io_in[35] 19.8 
*END

*D_NET *30 0.447082
*CONN
*P io_in[36] I
*I *419:io_in[36] I *D tiny_user_project
*CAP
1 io_in[36] 0.00179421
2 *419:io_in[36] 0.00248279
3 *30:12 0.0186553
4 *30:11 0.0161725
5 *30:9 0.077295
6 *30:7 0.0790892
7 *419:io_in[36] *419:wbs_dat_i[0] 1.16154e-05
8 *30:12 *132:15 0.171677
9 *30:12 *178:19 0.0763147
10 *30:12 *322:15 0.00249484
11 *30:12 *374:19 0.00109467
12 *8:16 *419:io_in[36] 0
*RES
1 io_in[36] *30:7 13.185 
2 *30:7 *30:9 580.86 
3 *30:9 *30:11 4.5 
4 *30:11 *30:12 440.37 
5 *30:12 *419:io_in[36] 21.015 
*END

*D_NET *31 0.430942
*CONN
*P io_in[37] I
*I *419:io_in[37] I *D tiny_user_project
*CAP
1 io_in[37] 0.000323383
2 *419:io_in[37] 0.0017823
3 *31:16 0.0304148
4 *31:15 0.0286325
5 *31:13 0.0792634
6 *31:11 0.0795868
7 *419:io_in[37] *308:11 7.46417e-05
8 *419:io_in[37] *308:13 0.00286926
9 *31:13 *176:16 0
10 *31:13 *189:19 0
11 *31:13 *334:16 0
12 *31:16 *89:12 0.0534507
13 *31:16 *127:11 0.144551
14 *31:16 *242:12 0.00999323
*RES
1 io_in[37] *31:11 3.015 
2 *31:11 *31:13 596.43 
3 *31:13 *31:15 4.5 
4 *31:15 *31:16 485.73 
5 *31:16 *419:io_in[37] 23.715 
*END

*D_NET *32 0.369912
*CONN
*P io_in[3] I
*I *419:io_in[3] I *D tiny_user_project
*CAP
1 io_in[3] 0.000457792
2 *419:io_in[3] 0.000323321